23

C      -0.023786    1.692670    0.027390
C       0.035566    0.157759    0.036330
C       0.680461   -0.431906   -1.229080
C      -0.138841   -0.241380   -2.499639
O       0.549268   -0.896883   -3.555900
C       0.790280   -0.324984    1.271174
C       0.114380   -0.179777    2.654511
C       0.299852   -1.706497    2.744200
O       0.801550   -1.769745    1.394014
H       0.979132    2.122030   -0.081741
H      -0.636146    2.068618   -0.796497
H      -0.453402    2.081466    0.956780
H      -0.988597   -0.235547    0.117272
H       1.673464    0.010676   -1.382315
H       0.830271   -1.506038   -1.081432
H      -1.146115   -0.667466   -2.356170
H      -0.267419    0.829333   -2.723114
H       0.046586   -0.769505   -4.365570
H       1.820975    0.062348    1.246738
H       0.643835    0.418842    3.396820
H      -0.926918    0.146927    2.604480
H       1.050556   -2.038352    3.473240
H      -0.607334   -2.308032    2.873989
