13

O      -0.402948    0.609838    0.767708
C       0.226647    0.953808   -0.199399
C       1.339298    1.941588   -0.135021
C       1.928504    2.421188    1.173874
O       2.495472    3.714952    0.900210
C       2.163396    4.173210   -0.336626
O       2.382776    5.284882   -0.711895
C       1.484641    3.054119   -1.099118
O       2.304015    1.890685   -1.190769
H       0.037067    0.560095   -1.219533
H       1.151471    2.517376    1.936727
H       2.723262    1.766181    1.538391
H       0.828451    3.271805   -1.934463
