23

C      -0.022805    1.495592    0.186856
C       1.523013    1.408406    0.020753
C       2.168431    1.084164    1.374137
C       1.277116    0.090306    2.159158
C       0.498475   -0.850216    1.212646
C       1.420416   -1.902017    0.551804
C       2.146101   -1.147634   -0.596649
C       1.281096    0.102164   -0.822863
C      -0.033738   -0.041345   -0.005352
H      -0.424396    1.924511    1.109936
H      -0.491928    1.996772   -0.664312
H       2.032572    2.235623   -0.480951
H       3.173166    0.673717    1.220355
H       2.300954    2.003970    1.955857
H       1.871676   -0.489547    2.873425
H       0.553932    0.656064    2.755914
H      -0.308674   -1.333662    1.772801
H       2.107381   -2.362593    1.269089
H       0.809931   -2.710080    0.132612
H       3.176678   -0.891344   -0.329850
H       2.203892   -1.759800   -1.501654
H       1.128278    0.350848   -1.875899
H      -0.907546   -0.510678   -0.465720
