22

C       0.108239    1.537572   -0.226654
C       0.005921    0.037567   -0.051001
C       1.155046   -0.803359   -0.471557
N       0.849648   -0.622936    0.964271
C      -1.400689   -0.576467   -0.108563
O      -1.336217   -1.964356    0.179203
C      -2.389117    0.133366    0.828648
C      -3.763616   -0.522885    0.826827
O      -4.609115    0.244094    1.675038
H       1.155170    1.853394   -0.276963
H      -0.378905    1.857191   -1.154952
H      -0.368132    2.075455    0.598912
H       0.982977   -1.808324   -0.841601
H       2.028183   -0.300363   -0.878358
H       1.490595    0.037651    1.394487
H      -1.768903   -0.498660   -1.141435
H      -0.716290   -2.034570    0.922925
H      -1.992626    0.130092    1.851874
H      -2.509884    1.181483    0.532600
H      -4.157458   -0.553172   -0.203389
H      -3.674281   -1.560891    1.171669
H      -5.452904   -0.211667    1.743043
