19

O       0.182905    1.346706    0.407380
C       0.021190    0.030893   -0.114132
C      -1.398936   -0.447822   -0.094931
C      -2.059449   -1.023155    1.129546
C      -1.927602   -1.875814   -0.105526
C      -2.909141   -1.489285   -1.255112
O      -3.055603   -2.295960   -2.367757
C      -3.859073   -0.374119   -0.917922
C      -2.404000   -0.071579   -1.232761
H      -0.370569    1.936938   -0.114125
H       0.425165   -0.036027   -1.137698
H       0.637415   -0.615022    0.520455
H      -1.363028   -1.277831    1.924003
H      -3.017960   -0.678584    1.500427
H      -1.353904   -2.794072   -0.134827
H      -3.756434   -2.933435   -2.187071
H      -4.520597   -0.132431   -1.744995
H      -4.303823   -0.219151    0.059404
H      -2.126676    0.558397   -2.069137
