16

C      -0.253672    1.414157   -0.005423
C      -0.006431   -0.060200    0.170264
O       1.001042   -0.571327    0.575404
O      -1.115326   -0.769678   -0.206485
C      -1.025994   -2.206453   -0.130273
C      -2.200886   -2.693112    0.727552
O      -3.446167   -2.322366    0.194448
C      -1.068531   -2.744000   -1.496286
N      -1.086624   -3.189910   -2.561177
H       0.609163    1.970962    0.356793
H      -0.422372    1.634131   -1.063576
H      -1.153266    1.715127    0.537986
H      -0.071648   -2.474579    0.333322
H      -2.182071   -3.785766    0.775556
H      -2.044791   -2.301906    1.744625
H      -3.446246   -1.363380    0.097828
