14

O      -0.675726    0.647348    0.238736
C       0.361009    0.692122   -0.369361
C       1.446712    1.716396   -0.084419
N       2.813009    1.326896   -0.517594
C       2.999513    2.606520   -1.251272
C       1.511697    2.947837   -1.032464
O       1.228771    2.642443   -2.427578
C       2.569734    2.413570   -2.717494
O       3.046167    2.153507   -3.769018
H       0.603395   -0.007312   -1.196337
H       1.365052    2.045499    0.957834
H       3.471633    1.171725    0.234402
H       3.862891    3.227156   -1.017211
H       1.076339    3.896144   -0.729248
