21

C      -0.144324    1.532912   -0.014293
C       0.027824    0.034657    0.077852
C       1.342247   -0.710111   -0.212464
C       2.614516    0.056848   -0.122176
C       2.846529    0.521848    1.112620
C       4.004269    1.350470    1.571755
C       1.740739    0.096085    2.063211
C       0.758079   -0.684737    1.183701
O       0.201979   -1.853525    1.714916
H       0.779880    2.061890    0.230632
H      -0.435486    1.829067   -1.028063
H      -0.926351    1.884032    0.669213
H      -0.833825   -0.536528   -0.262521
H       1.279377   -1.600741   -0.828050
H       3.263590    0.225679   -0.975142
H       4.713783    1.533212    0.759859
H       3.676668    2.323854    1.959205
H       4.543447    0.857457    2.391267
H       2.120886   -0.560098    2.857858
H       1.276386    0.957764    2.562357
H      -0.577345   -1.607241    2.224757
