19

C      -0.122208    1.439533    0.076020
C       1.284463    0.891763   -0.078345
C       0.099685   -0.041356   -0.030961
O      -0.086328   -0.808132    1.164234
C      -0.351591   -2.138196    0.763315
C      -1.765418   -2.826471    0.856673
C      -1.610196   -3.222617   -0.663753
C      -0.590000   -2.105888   -0.711198
C      -0.402127   -0.872558   -1.170354
H      -0.407606    1.808008    1.055237
H      -0.579400    1.960355   -0.759111
H       1.798571    1.028789   -1.023718
H       1.923009    0.907830    0.797540
H       0.436159   -2.812467    1.127436
H      -1.880537   -3.641053    1.575877
H      -2.550183   -2.080677    0.993939
H      -1.179275   -4.222581   -0.773489
H      -2.483688   -3.137113   -1.312084
H      -0.689997   -0.446220   -2.122871
