17

C      -0.037420    1.445944   -0.016113
C      -0.004352   -0.008307   -0.008175
C       0.022804   -1.215249   -0.001886
C       0.067472   -2.626240    0.015326
C       1.014862   -3.654192    0.723567
C       0.799160   -4.644977   -0.408155
C      -0.121929   -4.659361    0.803078
C      -1.073257   -3.657017    0.086825
C      -0.156709   -3.642703   -1.118437
H       0.768097    1.859646    0.601325
H       0.086523    1.847029   -1.028720
H      -0.984561    1.830373    0.379793
H       1.867458   -3.513776    1.373596
H       1.459842   -5.412582   -0.786581
H      -0.301207   -5.440083    1.529202
H      -2.135350   -3.465952    0.157260
H      -0.374878   -3.438467   -2.157763
