18

C      -0.128634    1.529861    0.001352
C      -0.054633    0.004537   -0.026228
C      -1.403248   -0.626855   -0.341176
C       1.175922   -0.510233   -0.833659
N       1.948296   -0.586804    0.428013
C       0.702382   -0.597807    1.218546
C       0.735781    0.163288    2.467684
N       0.735548    0.764023    3.455343
H       0.847028    1.968083    0.227830
H      -0.456333    1.906689   -0.973450
H      -0.840320    1.878869    0.756245
H      -1.767589   -0.289207   -1.317715
H      -1.345151   -1.719886   -0.365279
H      -2.152836   -0.343780    0.406133
H       0.982320   -1.482076   -1.309006
H       1.602021    0.171363   -1.576898
H       2.541702   -1.400119    0.546813
H       0.317677   -1.602691    1.446894
