17

C      -0.086803    1.540376   -0.174459
N      -0.146500    0.108903    0.028784
C       0.404462   -0.471678    1.000378
O       0.302108   -1.855175    1.121379
C      -0.043695   -2.615247    0.032995
O      -0.223505   -3.787453    0.146078
C       1.182575    0.074161    2.142551
C       0.999428   -0.511692    3.506695
N       2.247078   -0.725481    2.778278
H       0.602890    2.086525    0.480242
H       0.200858    1.735215   -1.212713
H      -1.090175    1.960244   -0.040035
H      -0.111280   -2.022744   -0.886784
H       1.414452    1.129344    2.068645
H       1.069480    0.149734    4.365161
H       0.305736   -1.340152    3.606629
H       2.238778   -1.660565    2.376614
