25

C      -0.069173    1.587820    0.139398
C       0.026023    0.060813    0.041131
C       0.691759   -0.476875   -1.247305
O       0.039537    0.041797   -2.413449
C       2.118749    0.073566   -1.382962
O       2.904101   -0.448596   -0.319463
C       0.683741   -2.039976   -1.259100
C      -0.738828   -2.617271   -1.365041
C       1.553334   -2.624975   -2.383087
H       0.908025    2.049080    0.309175
H      -0.488109    2.013714   -0.776932
H      -0.713102    1.877118    0.975627
H       0.580331   -0.334048    0.898789
H      -0.985508   -0.356228    0.108879
H      -0.899327   -0.154799   -2.337324
H       2.516967   -0.213326   -2.363895
H       2.079888    1.169808   -1.355942
H       3.790232   -0.084516   -0.394477
H       1.111014   -2.357998   -0.301424
H      -0.702419   -3.710207   -1.323388
H      -1.400028   -2.286838   -0.559366
H      -1.204339   -2.352600   -2.322182
H       2.614574   -2.427226   -2.215421
H       1.426282   -3.711067   -2.435893
H       1.267163   -2.205350   -3.353213
