19

C      -0.265290    1.588767    0.037184
C      -0.006451    0.083104    0.012649
O      -1.207117   -0.654023    0.245610
C       0.521683   -0.392951   -1.342079
C       0.871686   -1.866416   -1.348257
C       1.641075   -2.427942   -2.557525
C       2.756469   -2.660757   -1.537835
O       3.859619   -3.102852   -1.519946
O       2.039896   -2.153328   -0.485254
H       0.657727    2.151176   -0.137570
H      -0.995595    1.864317   -0.730339
H      -0.662460    1.896626    1.010757
H       0.743812   -0.169254    0.777723
H      -1.504509   -0.467594    1.141255
H      -0.249926   -0.214729   -2.102020
H       1.405353    0.192942   -1.619618
H       0.028134   -2.470663   -1.011958
H       1.247807   -3.340126   -3.008717
H       1.893258   -1.710130   -3.340961
