18

C       1.396594    0.032607   -2.391161
C       0.945625   -0.709185   -1.154732
C       1.723409   -1.872630   -0.547388
C       2.986522   -2.340730   -1.169266
O       3.873704   -1.643488   -1.612559
N       1.571465   -0.571249    0.133341
C       2.712013    0.312919    0.347010
C       3.171926    0.211043    1.794958
O       4.195172    0.690850    2.204410
H       2.476434   -0.014941   -2.532589
H       0.911449   -0.393260   -3.274823
H       1.094091    1.083605   -2.325126
H      -0.136076   -0.826634   -1.081817
H       1.150332   -2.674906   -0.087038
H       3.072863   -3.449074   -1.202423
H       3.569190    0.142093   -0.312187
H       2.372187    1.345685    0.191872
H       2.464286   -0.337094    2.457135
