19

C      -0.004972    1.508686    0.121386
C       0.017998    0.014384    0.025640
C       0.070285   -0.740184   -1.079047
C       0.035122   -2.234854   -0.782822
O       1.078246   -2.980047   -1.394842
C       0.046726   -2.290300    0.752437
C       1.266493   -1.707763    1.414755
O       2.451033   -1.470505    0.695361
C       0.025902   -0.850568    1.255086
H       0.834292    1.883270    0.720496
H       0.037182    1.976918   -0.865283
H      -0.919010    1.852379    0.621769
H       0.137282   -0.368198   -2.095801
H      -0.890940   -2.672294   -1.176321
H       1.887548   -2.749505   -0.918542
H      -0.493639   -3.084326    1.253488
H       1.497090   -2.051916    2.417658
H       2.277796   -0.737642    0.088285
H      -0.518531   -0.537499    2.139631
