14

O       0.003390   -0.099281    0.002449
C      -0.013276    1.128745    0.009341
C      -1.305051    1.830922    0.030368
C      -1.602329    3.154084    0.040860
C      -0.735885    4.293028    0.034773
C       0.623162    4.311573    0.016927
C       1.520215    3.196691   -0.000138
C       1.258971    1.865908   -0.003281
H      -2.135062    1.128794    0.038066
H      -2.662532    3.398003    0.056296
H      -1.238076    5.256618    0.046011
H       1.099002    5.288508    0.015320
H       2.573409    3.469447   -0.012453
H       2.107743    1.186686   -0.017611
