17

O      -0.092143    1.462253    0.006993
C       0.007907    0.066863    0.227714
C      -1.322988   -0.603062    0.064968
O      -2.339778   -0.222228    1.055563
C      -2.967735   -1.475726    0.763750
C      -2.943575   -1.669924   -0.753596
C      -1.772461   -2.105060    0.142702
C      -2.133387   -0.476027   -1.257997
O      -2.730289    0.772225   -1.495855
H      -0.689633    1.603649   -0.738460
H       0.719243   -0.412272   -0.467017
H       0.390122   -0.071464    1.244374
H      -3.729464   -1.852177    1.432529
H      -3.648923   -2.293833   -1.286452
H      -1.258449   -3.046313    0.268001
H      -1.531434   -0.736408   -2.131967
H      -3.119858    1.029945   -0.647350
