19

C      -0.194614    1.416148   -0.087326
N       0.053604   -0.013701    0.030113
C       1.415377   -0.485526   -0.153924
C       0.773452   -0.520934    1.200540
C       1.270378    0.321127    2.335310
C       1.188035   -0.330586    3.499584
C       0.564236   -1.675909    3.306022
N      -0.837727   -1.571377    2.798676
C       0.280828   -1.792086    1.853122
H       0.665069    2.050248    0.181720
H      -0.464275    1.639777   -1.124573
H      -1.038452    1.687296    0.553660
H       1.534440   -1.402675   -0.727821
H       2.203771    0.252149   -0.306806
H       1.628193    1.334792    2.206606
H       1.486121    0.058438    4.465306
H       0.838080   -2.523281    3.924700
H      -1.299665   -2.468411    2.945112
H       0.337323   -2.730477    1.312757
