22

C      -0.136023    1.326328    0.189190
C      -0.090580   -0.148141   -0.088414
N       0.791523   -0.671530   -0.832359
O      -1.111314   -0.775764    0.576848
C      -1.170893   -2.177545    0.496415
C      -2.503414   -2.790770    0.800675
C      -1.949846   -2.853836   -0.612847
C      -2.611574   -1.989570   -1.668021
C      -1.428237   -4.187729   -1.111825
H       0.669602    1.824201   -0.348256
H      -1.100317    1.740052   -0.122353
H      -0.036584    1.512839    1.263013
H       0.667541   -1.679542   -0.922822
H      -0.274374   -2.667841    0.871690
H      -2.526577   -3.692848    1.402697
H      -3.317657   -2.098923    0.986897
H      -2.929335   -1.028703   -1.256976
H      -1.926686   -1.789513   -2.499482
H      -3.495225   -2.492733   -2.076319
H      -2.247101   -4.808691   -1.493414
H      -0.708472   -4.051319   -1.927644
H      -0.931013   -4.750955   -0.315586
