16

C      -0.190212    1.454995    0.007734
C       0.075295   -0.036657   -0.002538
C       0.938519   -0.562092   -1.150811
C       2.142009   -0.450145   -0.279718
N       1.226194   -0.424782    0.939232
C       1.184855   -1.919285    0.817920
O       1.070651   -2.756445    1.656721
C       1.580902   -1.856622   -0.617312
O       2.003907   -2.820042   -1.485971
H       0.725418    2.019852   -0.190373
H      -0.930561    1.716264   -0.756172
H      -0.577801    1.760474    0.983531
H      -0.841367   -0.597910    0.217240
H       0.858764   -0.419832   -2.223249
H       3.147420   -0.063657   -0.338892
H       2.629642   -3.392036   -1.025614
