20

O      -0.138849    1.396091    0.574019
C      -0.047299    0.069757    0.197067
C      -0.013454   -0.440011   -1.211392
C      -1.076441   -0.976209   -0.260447
C      -0.425948   -2.027941    0.658361
C       0.590962   -0.936455    1.142532
N      -2.441563   -0.785270   -0.613180
C      -3.231129   -1.950940   -1.011050
C      -3.490411   -1.258337    0.282738
H      -0.493059    1.902443   -0.163736
H      -0.432171    0.240206   -1.948588
H       0.794439   -1.069646   -1.584186
H      -1.068719   -2.374442    1.470617
H       0.006470   -2.900391    0.156666
H       1.654368   -1.143765    0.984873
H       0.430306   -0.665440    2.188334
H      -3.893311   -1.806178   -1.860170
H      -2.757014   -2.929049   -0.962361
H      -3.206983   -1.780030    1.193699
H      -4.342756   -0.593286    0.389937
