19

C      -0.032711    1.621190   -0.095445
C       0.009284    0.091202   -0.101421
N       0.724140   -0.459838   -1.255201
C       2.158202   -0.637887   -1.118142
C       0.020950   -0.741645   -2.380606
O      -1.188093   -0.547006   -2.469227
C       0.744752   -1.337372   -3.600189
O      -0.183934   -1.575035   -4.614049
H       0.972504    2.055249   -0.095332
H      -0.569122    1.986733   -0.974724
H      -0.552338    1.980860    0.798083
H       0.502048   -0.285315    0.802137
H      -1.006094   -0.307718   -0.126999
H       2.605043   -0.969035   -2.053780
H       2.640126    0.304838   -0.832878
H       2.387392   -1.382825   -0.345565
H       1.526458   -0.638269   -3.939340
H       1.253803   -2.269009   -3.306463
H      -1.028230   -1.270221   -4.235343
