19

O      -0.051231    1.396676    0.064007
C       0.057758   -0.003302   -0.014269
C       0.172690   -0.672139   -1.408177
O      -0.895219   -1.581206   -1.062013
C      -1.320480   -0.706637    0.009274
C      -1.768022   -1.398107    1.284020
O      -0.706797   -1.918996    2.061309
C       0.284928   -0.941652    2.322038
C       1.022750   -0.593038    1.029254
H       0.833335    1.771170    0.133029
H      -0.115098    0.010479   -2.219605
H       1.097343   -1.199415   -1.665868
H      -2.110030   -0.024559   -0.338822
H      -2.349925   -0.672308    1.878175
H      -2.421802   -2.240309    1.036826
H      -0.166828   -0.038297    2.765625
H       0.965409   -1.379488    3.057433
H       1.469689   -1.514702    0.644971
H       1.840465    0.113684    1.221944
