10

O      -0.057765    0.001135    0.003707
N      -0.015156    1.225225    0.006782
O       0.999892    1.911700    0.002041
C      -1.271881    1.916057    0.016933
C      -1.469595    3.263088    0.021969
O      -2.772687    3.511318    0.031134
N      -3.484870    2.298298    0.032395
C      -2.577068    1.359535    0.023984
H      -0.795063    4.103729    0.019879
H      -2.861481    0.318592    0.022976
