21

C      -0.040227    1.548099    0.159538
C       1.292331    0.847693    0.014895
C       2.270209    0.849006    1.176311
C       3.045587   -0.461350    1.360525
O       2.231843   -1.626822    1.420329
C       1.307671   -1.667474    2.465173
O       0.221822   -0.783790    2.317693
C      -0.457331   -0.917147    1.074552
C       0.003966    0.050342   -0.005721
H      -0.274398    1.930580    1.148795
H      -0.420653    2.155633   -0.654701
H       1.771899    0.936814   -0.957551
H       3.008379    1.646980    1.018527
H       1.744698    1.089859    2.102570
H       3.715531   -0.634587    0.511687
H       3.667161   -0.394950    2.268346
H       0.953076   -2.708095    2.489064
H       1.765963   -1.401247    3.428994
H      -0.350109   -1.945768    0.703093
H      -1.520726   -0.751041    1.286532
H      -0.282509   -0.303818   -0.993859
