18

O      -0.122225   -0.037805    0.100240
C      -0.019961    1.175045    0.105266
C       1.220094    1.912881   -0.017448
C       1.189602    3.269839   -0.014330
N       2.301428    4.047160   -0.132041
C       3.536735    3.527199   -0.724262
C       3.731750    2.047767   -0.449031
C       3.581971    1.470866    0.930538
C       2.518836    1.205612   -0.127036
H      -0.925213    1.822674    0.194821
H       0.254412    3.804530    0.128311
H       2.155434    5.038082   -0.235408
H       3.520709    3.674069   -1.815485
H       4.374986    4.115409   -0.331319
H       4.486874    1.600463   -1.088308
H       4.234370    0.652188    1.213602
H       3.317093    2.138876    1.743368
H       2.459491    0.199470   -0.525100
