19

N      -0.316078    1.191554   -0.320888
C      -0.209693   -0.180620   -0.186884
O       0.739946   -0.818844   -0.594151
N      -1.288593   -0.743392    0.497294
C      -2.701657   -0.708424    0.141449
C      -3.078455   -0.408157   -1.300950
C      -2.186209   -1.341918   -2.157478
C      -1.808071   -2.533431   -1.243222
C      -1.927311   -2.000396    0.175835
H       0.552928    1.650600   -0.546524
H      -0.907774    1.678971    0.333589
H      -3.377864   -0.414134    0.940329
H      -4.141671   -0.645596   -1.427127
H      -2.947504    0.645507   -1.565514
H      -2.698436   -1.669256   -3.065426
H      -1.283894   -0.816973   -2.477120
H      -2.517226   -3.362090   -1.354690
H      -0.807324   -2.913567   -1.458581
H      -2.011135   -2.702320    1.000962
