13

O      -0.088538    0.041704    0.355010
C      -0.027753    1.184340   -0.006989
C       1.260727    1.967498   -0.160323
C       1.280528    2.851473   -1.420762
C       2.296466    4.010460   -1.305415
O       2.717516    4.399734   -0.253825
C       1.513982    2.104140   -2.656052
N       1.728661    1.533546   -3.637527
H      -0.950671    1.769534   -0.235821
H       1.351880    2.645293    0.698830
H       2.109622    1.281417   -0.135604
H       0.303142    3.352443   -1.526662
H       2.581521    4.472862   -2.271317
