18

C       0.231649    1.468635   -0.118835
C       0.040580   -0.020101    0.099848
N       1.254521   -0.870927    0.116463
C       0.479471   -0.738290    1.349972
C       1.148570   -0.027367    2.489779
C       2.390807   -0.599598    3.069593
N       2.436916    0.645464    2.286907
C      -1.120173   -0.583411   -0.559490
N      -2.039856   -1.034444   -1.097401
H       1.067453    1.838790    0.474990
H       0.427356    1.674985   -1.174840
H      -0.671251    2.011918    0.174475
H       1.084520   -1.761983   -0.341544
H      -0.148837   -1.577521    1.643737
H       0.464888    0.502255    3.150055
H       2.593714   -0.490811    4.130842
H       2.787352   -1.504399    2.615793
H       2.759280    0.415139    1.347173
