18

C      -0.123982    1.547278   -0.013357
C      -0.001330    0.033858   -0.007025
C      -1.220096   -0.801221    0.465068
O      -0.396599   -1.557405    1.376004
C       0.746845   -0.704523    1.146471
C       1.928253   -1.441705    0.538684
C       1.695937   -1.367952   -0.977258
O       2.314958   -1.941173   -1.843234
N       0.654836   -0.493514   -1.183434
H       0.856716    2.015299   -0.141425
H      -0.766838    1.884831   -0.834586
H      -0.563376    1.906484    0.921791
H      -1.987252   -0.220819    0.994669
H      -1.694421   -1.435424   -0.291669
H       0.986600   -0.105057    2.031125
H       2.889994   -0.975546    0.776259
H       1.967574   -2.482625    0.866987
H       0.327894   -0.320552   -2.121926
