15

C       0.050181    1.398025    0.006712
O      -0.038836   -0.034090    0.003749
C      -1.265693   -0.554010    0.011646
N      -2.338185    0.177817    0.021624
C      -3.519804   -0.519232    0.028656
C      -3.632612   -1.873448    0.025962
C      -2.444911   -2.700521    0.014952
O      -2.361194   -3.911873    0.011028
N      -1.265480   -1.909237    0.008104
H       1.117655    1.617279   -0.001221
H      -0.437226    1.814462   -0.877397
H      -0.423035    1.809888    0.900628
H      -4.410248    0.103488    0.036942
H      -4.592727   -2.371208    0.031827
H      -0.384888   -2.407406    0.000142
