23

C      -0.017166    1.205441    1.014957
C       0.223412   -0.168043    0.427942
C       0.191098   -0.414623   -1.046217
N       1.443298   -0.523604   -0.312481
C       2.482380    0.470333   -0.541068
C      -0.374399   -1.673591   -1.652404
C      -1.861464   -1.626111   -1.930678
C       0.525062   -2.493291   -2.504813
N       0.141597   -2.957411   -1.156876
H       0.221471    2.010156    0.315663
H      -1.072280    1.309045    1.288829
H       0.574724    1.358005    1.924402
H      -0.111824   -0.982829    1.069307
H       0.059364    0.480979   -1.658575
H       2.109466    1.476399   -0.782751
H       3.117071    0.544161    0.347872
H       3.109189    0.137308   -1.374276
H      -2.104353   -0.833009   -2.647519
H      -2.202162   -2.579592   -2.341088
H      -2.424931   -1.433184   -1.010837
H       0.115525   -3.072722   -3.328373
H       1.544217   -2.144727   -2.651691
H       0.921686   -2.751535   -0.530858
