25

C      -3.386873    1.278702   -0.133206
C      -2.318532    0.580279   -0.974725
C      -1.372461    1.585503   -1.635814
O      -1.580304   -0.286965   -0.108553
C      -1.432105   -1.635840   -0.506527
C      -0.543696   -1.787229   -1.741690
C      -0.964221   -2.514025    0.682861
C      -2.020850   -3.578451    0.283262
C      -2.734209   -2.502579   -0.579923
H      -3.969773    1.978585   -0.740755
H      -4.071264    0.549730    0.309211
H      -2.915008    1.838348    0.680891
H      -2.816321   -0.015199   -1.753213
H      -0.849029    2.164336   -0.867977
H      -0.621866    1.082060   -2.250076
H      -1.927188    2.282251   -2.273307
H       0.429404   -1.317836   -1.566390
H      -0.378277   -2.844541   -1.972971
H      -0.998842   -1.326232   -2.624367
H       0.087492   -2.811249    0.701441
H      -1.214457   -2.019637    1.624087
H      -1.597156   -4.384550   -0.321364
H      -2.601075   -4.027520    1.091574
H      -3.548018   -2.020699   -0.032377
H      -3.093838   -2.798520   -1.569101
