14

C       0.029376    1.391139    0.132913
O       0.001814   -0.014956    0.049149
C      -1.301547   -0.528850   -0.089854
C      -1.202207   -2.049925   -0.205474
C      -2.554637   -2.717771   -0.113352
O      -3.006875   -3.477489   -0.929749
H       1.074685    1.690149    0.238744
H      -0.386333    1.862430   -0.771436
H      -0.536625    1.759629    1.003114
H      -1.922058   -0.250539    0.780838
H      -1.793305   -0.108015   -0.982944
H      -0.712134   -2.346348   -1.135463
H      -0.593840   -2.405706    0.637869
H      -3.133502   -2.455689    0.804215
