14

O       0.026529    1.337071    0.009444
C      -0.021782   -0.065094    0.003245
C      -1.488537   -0.468833    0.012809
O      -2.420982    0.273703    0.023558
N      -1.678835   -1.893979    0.008199
N      -0.644189   -2.751641   -0.004126
C      -1.224983   -3.939492   -0.004511
C      -2.627005   -3.756262    0.007761
N      -2.891853   -2.460579    0.015694
H       0.951899    1.598303   -0.000934
H       0.451166   -0.514015   -0.883053
H       0.464909   -0.522178    0.877897
H      -0.641644   -4.846866   -0.013300
H      -3.421230   -4.486157    0.011070
