16

C      -0.027283    1.413094    0.017613
O      -0.096721    0.000340   -0.023872
C       0.561471   -0.582733   -1.056327
C       0.612692   -1.947174   -1.277180
N       1.352196   -2.119218   -2.405731
C       1.743416   -3.371131   -3.015754
N       1.786217   -0.961416   -2.923003
C       1.308454   -0.013701   -2.111020
H       1.009839    1.761562    0.114367
H      -0.469729    1.863565   -0.881133
H      -0.595663    1.727391    0.894544
H       0.186088   -2.771260   -0.730114
H       0.882458   -4.041050   -3.091437
H       2.118589   -3.145871   -4.013700
H       2.531263   -3.867708   -2.438634
H       1.512554    1.024449   -2.320143
