19

C      -0.370860    1.379907    0.009728
C       0.109104   -0.070903    0.034484
C       0.911139   -0.502556   -1.215459
C       1.693147   -1.760991   -0.782999
C       2.054414   -1.475790    0.694481
C       1.059292   -0.408887    1.196812
O       0.511282   -1.374225    2.168086
C       1.387062   -2.351520    1.758896
O       1.477417   -3.462025    2.173332
H       0.475632    2.073234   -0.058068
H      -1.019743    1.565472   -0.851824
H      -0.936614    1.627373    0.913444
H      -0.758152   -0.734308    0.138985
H       0.272346   -0.675295   -2.086604
H       1.615052    0.295636   -1.486474
H       1.061874   -2.652243   -0.857309
H       2.576454   -1.942832   -1.398683
H       3.115977   -1.298632    0.869376
H       1.452474    0.459265    1.729301
