21

C      -0.090192    1.578967   -0.054507
C      -0.004048    0.050992   -0.014669
C       0.681774   -0.583784   -1.246717
C       1.300023   -1.914083   -0.749085
C       1.530650   -1.727788    0.745380
C       2.248970   -0.474790    1.222324
O       2.964544    0.373144    0.365832
C       0.747457   -0.511873    1.191497
O       0.064577   -0.547996    2.412403
H       0.908574    2.019863   -0.121597
H      -0.675311    1.918757   -0.915580
H      -0.580145    1.972367    0.844144
H      -1.020826   -0.355095    0.076546
H      -0.023261   -0.739157   -2.068581
H       1.468559    0.081375   -1.607299
H       0.602144   -2.746886   -0.892537
H       2.213452   -2.171559   -1.297378
H       1.598805   -2.602534    1.383535
H       2.663700   -0.554273    2.228080
H       3.765678   -0.086678    0.092938
H       0.074458    0.340975    2.784211
