19

C      -0.002318    1.410221   -0.082200
O      -0.015303    0.035618    0.226278
C      -1.287921   -0.581278    0.066685
C      -1.697639   -0.861485   -1.371490
C      -1.974064   -2.153702   -1.559576
C      -1.738772   -2.955036   -0.321309
C      -0.286981   -2.970001    0.156804
C      -1.266535   -1.967505    0.708880
O      -1.690698   -2.077881    2.031680
H       0.997784    1.784283    0.151543
H      -0.207200    1.605279   -1.145316
H      -0.739017    1.969093    0.516702
H      -2.046498    0.035788    0.579469
H      -1.750555   -0.088304   -2.128440
H      -2.293728   -2.599208   -2.495422
H      -2.382044   -3.783951   -0.051737
H      -0.015062   -3.768836    0.838904
H       0.488551   -2.641904   -0.525654
H      -0.973311   -1.757911    2.590601
