21

C       0.291991    1.648453   -0.079196
C       0.002279    0.163421    0.133764
O       0.440161   -0.642897   -0.955668
C       1.815174   -0.988568   -0.753289
C       2.097598   -0.843782    0.756001
C       0.724468   -0.443140    1.357306
O       0.822673    0.503906    2.405132
C      -0.040502   -1.665301    1.871307
O       0.692327   -2.163083    2.989776
H       1.366013    1.843131   -0.156278
H      -0.185443    1.982048   -1.004609
H      -0.094820    2.235591    0.756825
H      -1.082259    0.016118    0.202180
H       1.948589   -2.011397   -1.119538
H       2.466161   -0.334469   -1.349420
H       2.482641   -1.758735    1.209689
H       2.808926   -0.040996    0.961416
H       1.043778   -0.003658    3.196335
H      -1.048367   -1.350547    2.177105
H      -0.133518   -2.419421    1.077972
H       0.156576   -2.820215    3.442060
