14

O       0.030103    0.020779   -0.005189
C       0.028822    1.215880   -0.027640
N      -0.992401    2.159568    0.022048
C      -0.137485    3.329694   -0.016523
C       0.428229    3.816458    1.370048
N       1.454880    2.738911    1.324979
C       1.082481    2.363632   -0.065592
C       0.968686    5.170678    1.309969
N       1.415754    6.235094    1.241494
H      -1.968722    2.060771    0.262869
H      -0.381781    4.090533   -0.755351
H      -0.259161    3.732671    2.218212
H       2.405918    3.067967    1.436451
H       1.859600    2.363027   -0.827756
