16

C       0.093864    1.410328   -0.011843
N      -0.176688    0.000362    0.198208
C       0.564457   -0.695493    1.119859
N       1.286590   -0.107620    2.067599
N       1.768972   -1.197235    2.742538
C       1.341589   -2.342062    2.179753
C       1.695473   -3.700692    2.681984
N       0.571444   -2.063762    1.140523
H       1.117836    1.610670   -0.360900
H      -0.614418    1.801242   -0.746031
H      -0.046499    1.952003    0.927113
H      -0.380228   -0.544846   -0.624991
H       2.368926   -1.063756    3.538511
H       0.803392   -4.224364    3.039095
H       2.129218   -4.302080    1.878279
H       2.415327   -3.647180    3.503058
