15

N       0.000000    1.565383    0.036480
C      -0.236686    0.133143    0.063387
C       0.691743   -0.520879    1.083126
C       0.850603   -2.059456    0.995147
C       2.268813   -1.726614    0.536569
O       3.238865   -2.301531    0.175254
O       2.098383   -0.362275    0.661088
C       0.502365    0.002055    2.436975
N       0.325599    0.355619    3.521981
H       0.911867    1.762450   -0.362758
H      -0.693907    2.036092   -0.532147
H      -1.271034   -0.054045    0.373076
H      -0.078483   -0.390605   -0.895181
H       0.799168   -2.596907    1.941961
H       0.229760   -2.553911    0.246528
