9

N       0.018440    1.360059    0.153852
C      -0.019346   -0.002868    0.043023
N      -1.132389   -0.700485   -0.011182
O      -0.658912   -2.032774   -0.043494
C       0.665267   -1.954635   -0.015946
N       1.142163   -0.752748    0.036439
H       0.870948    1.780259   -0.182136
H      -0.823782    1.839739   -0.124742
H       1.215280   -2.884447   -0.039083
