9

O       0.038481    0.058543   -0.008627
C       0.180279    1.224701   -0.188079
O       0.738272    2.036061    0.750998
C       0.879118    3.411929    0.414885
C       2.183885    3.694994   -0.196505
N       3.203995    3.925283   -0.685781
H      -0.125073    1.771344   -1.100828
H       0.084319    3.741069   -0.266073
H       0.781882    3.974887    1.346110
