19

C      -0.000413    1.473181   -0.196589
N      -0.117997    0.028843   -0.276118
C      -1.166644   -0.654981    0.258685
O      -2.106777   -0.115511    0.818194
C      -1.069342   -2.181487    0.143446
C      -0.455328   -2.751698    1.433960
C      -2.490989   -2.730795   -0.112766
C      -2.519751   -4.185427   -0.231851
N      -2.522851   -5.337151   -0.329944
H       0.886432    1.770404    0.373827
H       0.057077    1.920932   -1.194372
H      -0.891617    1.843445    0.310849
H       0.616484   -0.491429   -0.726485
H      -0.430995   -2.451637   -0.706060
H      -1.058608   -2.462534    2.299797
H      -0.407951   -3.842959    1.390229
H       0.558610   -2.370055    1.584203
H      -3.144383   -2.409724    0.703998
H      -2.905440   -2.297679   -1.029399
