18

C       0.100512    1.527210    0.028013
C       0.033661    0.041874   -0.001669
C       0.012268   -0.858509   -0.988651
C      -0.035400   -2.194126   -0.232895
C      -0.996144   -3.236777   -0.864018
N      -2.143045   -2.441864   -0.193895
C      -1.062157   -2.002268    0.812955
C       0.002608   -0.887635    1.213448
O       1.015637   -1.929049    0.843392
H       1.003407    1.872110    0.547538
H       0.106322    1.947773   -0.981048
H      -0.753362    1.953640    0.569217
H       0.046309   -0.732099   -2.062164
H      -1.049134   -3.294698   -1.955313
H      -0.953106   -4.235195   -0.426738
H      -2.348606   -1.660214   -0.818748
H      -1.047464   -2.771851    1.586147
H       0.140030   -0.500482    2.224135
