21

C       0.179102    1.530672    0.131962
C       1.378543    0.640915    0.044949
O       1.622063   -0.013379    1.288609
C       0.337293   -0.734474    1.172451
C       0.593420   -2.234833    0.996799
C       0.664797   -2.756110    2.437720
C      -0.496191   -2.012908    3.126335
C      -0.515241   -0.614182    2.456371
C       0.004008    0.041469   -0.101077
H      -0.087235    1.985127    1.081534
H      -0.013513    2.144335   -0.743127
H       2.207323    0.759128   -0.643262
H      -0.266744   -2.683197    0.479910
H       1.486611   -2.422966    0.397071
H       0.584830   -3.843977    2.512236
H       1.621865   -2.460712    2.882941
H      -1.437228   -2.538937    2.928393
H      -0.383910   -1.958417    4.212296
H      -0.061785    0.145794    3.096953
H      -1.530195   -0.279369    2.222928
H      -0.503339   -0.369218   -0.964388
