20

C       0.522003   -0.740629   -1.205291
C      -0.025867    0.064443   -0.043788
C      -1.258979   -0.557512    0.602579
C      -2.001894    0.326182    1.632958
O      -2.543616    1.488940    1.038640
C      -3.083940   -0.440296    2.255331
C      -3.949746   -1.098887    2.764920
C       0.929803    0.899078    0.731746
N      -0.041181    1.539404   -0.179217
H       1.417976   -0.273093   -1.627215
H       0.790684   -1.753708   -0.887249
H      -0.224940   -0.831523   -2.001885
H      -1.980106   -0.812348   -0.183096
H      -0.965033   -1.497475    1.084427
H      -1.294218    0.596482    2.437540
H      -1.796542    1.889316    0.556785
H      -4.722917   -1.665904    3.221168
H       0.770824    1.104631    1.785713
H       1.974769    0.882094    0.434067
H       0.408656    1.831783   -1.042215
