21

C      -0.119756    1.517612   -0.039619
C      -0.066976   -0.001542   -0.009087
C       1.163205   -0.632625   -0.698900
O       1.953570   -0.366684    0.495759
C       0.685551   -0.635196    1.203561
C       0.622541   -0.114048    2.611192
C       0.541188   -2.153121    0.949004
C       0.917477   -2.148488   -0.569551
O      -0.115892   -2.544886   -1.453468
H       0.860891    1.946805    0.182267
H      -0.433870    1.872963   -1.026709
H      -0.838092    1.904085    0.691749
H      -1.032659   -0.447461   -0.261433
H       1.596685   -0.253152   -1.624397
H       0.757983    0.970366    2.641432
H      -0.345889   -0.355347    3.062099
H       1.405597   -0.574441    3.222655
H       1.239978   -2.725834    1.564000
H      -0.474477   -2.526477    1.110542
H       1.841023   -2.707306   -0.764578
H      -0.241668   -3.493987   -1.363642
