16

O       0.121491    0.100742    0.095150
C      -0.079431    1.289606    0.055388
C      -1.216325    2.148428    0.069301
C      -0.748873    3.465814   -0.049662
C       0.615723    3.438926   -0.139573
C       1.263940    4.755605   -0.001102
N       0.061301    5.625928   -0.395222
H       0.104070    6.555174    0.034523
H       0.061209    5.723919   -1.408717
C      -1.223110    4.869730    0.014838
O       1.111706    2.196359   -0.064838
H      -2.228314    1.781027    0.096131
H       1.550095    5.093487    1.017216
H       2.101677    4.989049   -0.670699
H      -2.019732    5.172649   -0.673186
H      -1.484232    5.231314    1.020751
