15

O      -0.124675    1.440680   -0.058771
C       0.008963    0.025461    0.004650
C      -1.395593   -0.554596    0.007200
N      -2.067859   -0.209344   -1.239909
C      -3.475466   -0.576678   -1.242385
C      -4.125524   -0.176600   -2.494042
N      -4.647004    0.154166   -3.469983
H       0.733602    1.821760   -0.263316
H       0.557988   -0.361476   -0.865260
H       0.537901   -0.286965    0.917361
H      -1.334788   -1.646734    0.095666
H      -1.930462   -0.182269    0.900659
H      -1.968520    0.790991   -1.383506
H      -3.560251   -1.667092   -1.147300
H      -4.057942   -0.147384   -0.405352
