19

O       0.012718    1.379867   -0.109530
C       0.001323   -0.004001   -0.038635
C      -0.445013   -0.768487   -1.275329
C      -1.336541   -0.734776   -0.062984
C      -1.541496   -2.004949    0.766783
C      -0.430063   -2.260232    1.797968
C       0.974850   -2.021058    1.204147
C       1.087330   -0.564462    0.810192
O       1.958227    0.180481    1.223445
H       0.837226    1.632705    0.338170
H      -0.702898   -0.133945   -2.115483
H       0.048045   -1.700195   -1.534518
H      -2.183526   -0.060001   -0.133452
H      -2.503321   -1.945984    1.285632
H      -1.611300   -2.865537    0.089038
H      -0.561690   -1.589587    2.655783
H      -0.502025   -3.281748    2.185312
H       1.767391   -2.240423    1.922926
H       1.124250   -2.666262    0.329063
