15

O      -0.069126   -0.062111   -0.128413
C      -0.060483    1.125702    0.039245
C      -1.358437    2.013846    0.015582
N      -1.203681    2.792938    1.232710
C      -0.122827    3.447019    1.229381
N       0.833873    3.324587    2.344244
C       1.791083    2.943219    1.248123
C       0.963334    3.453460    0.128085
C       1.211435    1.966704    0.159643
H      -1.359810    2.587059   -0.923172
H      -2.248019    1.386513    0.059150
H       1.151185    4.242800    2.665540
H       2.861232    2.984097    1.413901
H       1.147193    4.145077   -0.683763
H       2.008643    1.562310   -0.459894
