17

C      -0.467028   -1.134187   -0.780506
C      -0.225056   -0.034665   -0.359863
C       0.056647    1.289485    0.179322
C      -0.347172    1.452352    1.676011
C       0.632450    2.521065    2.197100
C       1.852251    2.366713    1.301698
C       2.359109    0.996267    1.036521
N       1.491322    1.662851    0.052771
H      -0.677679   -2.101042   -1.165772
H      -0.488434    2.033044   -0.415851
H      -1.394773    1.742109    1.779418
H      -0.222150    0.505150    2.205389
H       0.216940    3.527153    2.071105
H       0.862616    2.395298    3.259536
H       2.519441    3.217104    1.192068
H       3.381788    0.853279    0.701061
H       1.959170    0.166403    1.613015
