21

O      -0.013480    1.479661   -0.194662
C       0.051292    0.077048    0.017053
C      -1.375739   -0.475728    0.053153
C      -2.066294   -0.270367   -1.300566
O      -3.476127   -0.294943   -1.190680
C      -4.077873   -1.563667   -1.274257
C      -3.737532   -2.576976   -0.211136
C      -2.634318   -2.721175    0.523164
C      -1.348195   -1.935682    0.524396
H       0.882229    1.812062   -0.301060
H       0.621045   -0.419951   -0.786893
H       0.559591   -0.156803    0.966105
H      -1.941559    0.123066    0.777173
H      -1.807870    0.722858   -1.676544
H      -1.717291   -1.016211   -2.035611
H      -5.156640   -1.371516   -1.244914
H      -3.872745   -2.017563   -2.264001
H      -4.520611   -3.323073   -0.077974
H      -2.616668   -3.572398    1.202531
H      -0.622284   -2.492741   -0.092676
H      -0.930119   -1.965951    1.539199
