21

C      -0.004120    1.498936   -0.128766
C       1.309565    0.792777    0.059404
C      -0.006056    0.008588    0.067992
C       0.391517   -0.714869   -1.227139
C      -0.506115   -0.615563   -2.472619
C       0.287481   -0.331378   -3.725628
C       1.432335    0.351103   -3.733118
C       2.071819    0.921203   -2.489481
C       1.744310    0.091539   -1.235997
H      -0.342934    2.076741    0.725327
H      -0.273018    1.939587   -1.086243
H       1.963541    1.028484    0.890983
H      -0.516438   -0.449728    0.907171
H       0.610588   -1.767006   -1.029341
H      -1.088164   -1.535766   -2.598535
H      -1.249943    0.181754   -2.332506
H      -0.130744   -0.683832   -4.665394
H       1.932186    0.545940   -4.678890
H       3.156842    0.994786   -2.626309
H       1.725574    1.955528   -2.351955
H       2.567505   -0.600479   -1.042177
