19

C      -0.084554   -1.244889   -0.278794
C      -0.043851   -0.055471   -0.108118
C       0.006662    1.398075    0.093782
O      -0.647203    1.790829    1.302105
C       0.188618    1.901111    2.453901
C       1.590992    2.399869    2.089554
C       1.482308    3.289782    0.816719
C       1.451481    1.943501    0.038246
C       2.280943    1.334186    1.197733
H      -0.131575   -2.294907   -0.431447
H      -0.580541    1.876572   -0.700794
H      -0.326278    2.610573    3.110837
H       0.253859    0.936150    2.980324
H       2.116496    2.776404    2.970312
H       0.623132    3.958477    0.724980
H       2.406794    3.839470    0.625862
H       1.839448    1.891096   -0.980851
H       3.349566    1.527102    1.074131
H       2.123502    0.279109    1.437325
