20

C       0.033969    1.569421    0.012862
C      -0.038444    0.035009    0.006934
O      -1.398776   -0.381382   -0.148273
C       0.709813   -0.526938   -1.208413
C       0.504461   -2.018469   -1.420699
O       1.157417   -2.881911   -0.479984
C       0.837435   -2.849259    0.839709
N       0.533746   -1.914831    1.628133
C       0.545542   -0.496792    1.332438
H       1.069293    1.925135    0.039465
H      -0.448058    1.966823   -0.884353
H      -0.485022    1.980216    0.886151
H      -1.860274   -0.209910    0.679252
H       0.341571   -0.021609   -2.109510
H       1.778096   -0.299462   -1.121148
H      -0.566689   -2.240001   -1.413736
H       0.920572   -2.319527   -2.385044
H       0.925571   -3.859657    1.243484
H       1.584746   -0.144353    1.411011
H       0.006391    0.001754    2.150226
