18

O      -0.247863    1.538716    0.145129
C       0.032131    0.146626    0.158560
C      -1.306069   -0.575510   -0.053454
N      -1.889915   -0.154134   -1.314312
C      -2.292680   -0.915234   -2.371433
O      -2.718952   -0.418888   -3.398196
C      -2.188789   -2.426928   -2.204949
C      -1.546201   -2.892075   -0.933251
C      -1.152606   -2.063215    0.027676
H       0.580406    2.019832    0.067088
H       0.724649   -0.137865   -0.646296
H       0.468037   -0.165771    1.120056
H      -1.960004   -0.241172    0.769972
H      -1.932099    0.844103   -1.466201
H      -3.203737   -2.835126   -2.302387
H      -1.650009   -2.805516   -3.082400
H      -1.416943   -3.964413   -0.809123
H      -0.703008   -2.441121    0.941300
