17

C       0.126754    1.576148   -0.190464
C       0.101773    0.064588   -0.138537
C       0.664642   -0.859208   -1.184148
C       1.322352   -0.804855    0.185743
C       2.536160   -0.228266   -0.545354
O       3.615972    0.206657   -0.247259
N       1.898711   -0.346464   -1.779534
C       2.080145    0.468010   -2.960304
H       1.054336    1.955846   -0.625000
H      -0.711954    1.959684   -0.781548
H       0.044560    1.992790    0.818532
H      -0.798569   -0.342412    0.322614
H       0.132608   -1.685959   -1.638241
H       1.329663   -1.545705    0.972230
H       3.080151    0.906521   -2.907996
H       2.013520   -0.138204   -3.869751
H       1.341090    1.277368   -3.027455
