18

C      -0.042497    1.516273    0.056503
C       0.036070    0.002533   -0.017071
C       0.823583   -0.548665   -1.200812
C       2.030474   -0.600923   -0.344545
N       1.126163   -0.546007    0.902248
C       0.919369   -2.042073    0.746184
C       1.365328   -1.926455   -0.699511
C       1.867203   -2.946533   -1.620910
O       1.830228   -4.135456   -1.401464
H       0.937603    1.970732   -0.118065
H      -0.739377    1.904586   -0.693713
H      -0.391958    1.825297    1.045636
H      -0.945386   -0.442864    0.183099
H       0.747272   -0.334689   -2.260353
H       3.055600   -0.267665   -0.419577
H       1.644774   -2.584106    1.356176
H      -0.092746   -2.387373    0.978574
H       2.312718   -2.546704   -2.562018
