16

C       0.252834    1.556830    0.080452
C      -0.245458    0.134611   -0.153778
N       0.543249   -0.489798   -1.224619
C       1.740084   -1.206281   -0.869899
C       0.515433   -1.958178   -1.355196
C      -0.195583   -2.764265   -0.383999
N      -0.778168   -3.389754    0.394026
C       0.466943   -2.461640   -2.712566
N       0.449755   -2.863856   -3.795068
H       1.293210    1.560532    0.421018
H       0.191670    2.144933   -0.838757
H      -0.354677    2.043473    0.848398
H      -0.201924   -0.447534    0.779038
H      -1.288105    0.142903   -0.486165
H       2.583614   -1.114205   -1.547148
H       1.983381   -1.341170    0.183355
