19

C       0.001709    1.558323   -0.015323
C       0.078193    0.060098   -0.026908
C       0.626639   -0.920497   -1.059064
C       1.255491   -1.778714    0.040987
C       0.680428   -0.784026    1.107538
O       1.665225   -0.026276    1.781391
C      -0.874002   -0.806049   -0.838362
C      -1.679562   -1.858534   -0.285900
C      -2.354903   -2.739031    0.180671
H       0.953656    1.986510    0.309971
H      -0.230847    1.947143   -1.012095
H      -0.776535    1.910739    0.671640
H       1.047547   -0.724365   -2.038830
H       0.932328   -2.822300    0.092968
H       2.346116   -1.721963    0.041035
H      -0.045814   -1.208179    1.813843
H       2.082661   -0.596441    2.434573
H      -1.369621   -0.236194   -1.621382
H      -2.955907   -3.514103    0.587239
