16

O       0.299908    1.526560    0.798279
C       0.027187    0.201545    0.394980
C       0.473949   -0.149019   -1.058024
N       1.405014   -1.118562   -0.459342
C       1.128243   -0.808277    0.839270
O       1.590697   -1.124337    1.904943
C      -1.386626   -0.174884    0.777056
C      -2.531718    0.102105   -0.094181
O      -2.013329   -1.225805    0.043299
H       0.776050    1.479312    1.636272
H      -0.289492   -0.606470   -1.689880
H       0.962191    0.689678   -1.560335
H       2.110790   -1.713566   -0.867383
H      -1.552448   -0.210910    1.854463
H      -3.513822    0.266518    0.344903
H      -2.370626    0.569001   -1.064645
