14

O       0.202644    1.402268    0.164978
C       0.034649    0.003182    0.035593
C      -1.453223   -0.439348   -0.196357
O      -1.630856   -0.790731   -1.603362
C      -0.381841   -0.967812   -2.086334
C       0.255186   -1.409378   -3.196869
O       1.597249   -1.281244   -2.980716
N       1.841103   -0.752876   -1.715148
C       0.649565   -0.578045   -1.208327
H       0.154586    1.798462   -0.712328
H       0.417808   -0.426415    0.963831
H      -1.694866   -1.325774    0.399466
H      -2.145952    0.368702    0.044046
H      -0.034141   -1.812626   -4.151653
