20

C       0.051206    0.915204   -0.523096
O      -0.155675    0.219066    0.693729
C      -1.314420   -0.578184    0.722730
C      -1.170332   -1.910644    0.007750
C      -2.414737   -2.824337   -0.021916
C      -2.332680   -2.629377   -1.519786
O      -1.221918   -1.795112   -1.456748
N      -2.985197   -3.042080   -2.501252
C      -2.591178   -2.632789   -3.842162
H       0.922569    1.556880   -0.372085
H       0.239032    0.238879   -1.364915
H      -0.815607    1.545981   -0.773111
H      -1.515586   -0.788950    1.780819
H      -2.184159   -0.038386    0.312015
H      -0.236288   -2.398412    0.301553
H      -2.271309   -3.849275    0.322777
H      -3.312756   -2.407961    0.441338
H      -2.394258   -3.526251   -4.444663
H      -3.427391   -2.107090   -4.316352
H      -1.706546   -1.986050   -3.872867
