14

C      -0.184082   -1.098389    0.047592
C      -0.047728    0.092842    0.015073
C       0.086794    1.551090   -0.003248
C       1.509458    1.951626   -0.000020
N       2.612611    2.290036    0.027081
N      -0.570137    2.124610   -1.184792
C      -2.006459    2.356993   -1.036328
C      -1.051305    3.498176   -1.025461
H      -0.293863   -2.155019    0.068069
H      -0.347570    1.947269    0.935226
H      -2.601591    2.137916   -1.916748
H      -2.472334    2.085519   -0.091008
H      -0.875692    3.995023   -0.073145
H      -0.930081    4.131313   -1.898069
