21

C       0.630140    1.498528    0.040338
C       1.289743    0.145385   -0.152061
C      -0.201947    0.258662    0.067103
C      -0.833530   -0.257354    1.360108
C      -1.748581   -1.450799    1.033756
C      -2.870840   -0.954045    0.077233
C      -1.807440   -1.093395   -1.042262
C      -1.163537   -2.221723   -0.189034
O      -0.999684    0.079922   -1.087215
H       0.791279    2.029547    0.972768
H       0.528433    2.132236   -0.833384
H       1.615059   -0.105941   -1.155177
H       1.910709   -0.248530    0.646342
H      -0.040143   -0.548683    2.056873
H      -1.422398    0.528587    1.850578
H      -2.031063   -2.009667    1.928453
H      -3.676449   -1.685452   -0.029767
H      -3.286899    0.043982    0.238550
H      -2.118774   -1.292377   -2.069283
H      -0.084678   -2.373150   -0.256535
H      -1.680086   -3.170479   -0.353765
