17

C      -0.041464   -1.189711   -0.008229
C      -0.032106    0.006792   -0.112903
C      -0.013996    1.458308   -0.224365
C       1.375022    2.054255   -0.014638
O       2.232789    1.716774   -1.093445
C       3.131638    2.793914   -1.224528
C       2.624192    3.975372   -2.021431
C       2.502434    3.947768   -0.514363
O       1.275817    3.472566   -0.007187
H      -0.050876   -2.248086    0.074769
H      -0.367612    1.780037   -1.210021
H      -0.679583    1.906094    0.522685
H       1.815642    1.705248    0.934487
H       4.182385    2.530895   -1.177847
H       3.361691    4.644825   -2.453118
H       1.716969    3.833364   -2.596864
H       3.027377    4.647899    0.125630
