19

C      -0.156549    1.346735   -0.182777
C       1.271787    0.981874    0.018257
N       0.231308   -0.041580    0.051668
C      -0.097532   -0.586701    1.370766
C      -1.517781   -1.206075    1.393340
C      -1.402347   -2.498298    2.240550
C       0.080971   -2.781816    2.222547
C       0.783864   -1.755443    1.750294
H      -0.649003    1.883331    0.627253
H      -0.537342    1.571572   -1.174751
H       1.955998    0.934263   -0.824014
H       1.730016    1.278735    0.960911
H      -0.006841    0.207841    2.139580
H      -2.276425   -0.514698    1.768291
H      -1.777044   -1.459712    0.361274
H      -1.755370   -2.345048    3.270085
H      -1.999115   -3.323127    1.834647
H       0.502725   -3.711261    2.590289
H       1.863895   -1.710123    1.665475
