17

C      -0.016036    1.576149    0.038703
C       0.037102    0.067760    0.053638
O      -1.121099   -0.574789   -0.401860
C       1.293264   -0.713499   -0.206371
O       2.450184   -0.033908    0.264863
C       1.965850   -0.103605    1.633099
C       0.650855   -0.753920    1.193639
C      -0.041483   -1.763243    1.910576
C      -0.601169   -2.605941    2.562277
H       0.952365    2.011943    0.290401
H      -0.280520    1.925803   -0.966808
H      -0.774516    1.945369    0.735133
H      -1.219868   -0.370898   -1.338942
H       1.403093   -1.479960   -0.966071
H       2.586663   -0.782201    2.225904
H       1.915722    0.879325    2.113788
H      -1.106726   -3.351897    3.123363
