17

C       0.019775    1.483562   -0.087392
C       1.367459    0.786289    0.022264
C       1.981841    0.479707    1.370007
C       0.797519   -0.128001    2.179580
O      -0.114277   -0.689418    1.220445
C       0.064009   -0.010403    0.024883
C       0.526997   -0.763648   -1.257756
O       0.752747    0.223713   -2.267203
C       1.768081    0.016287   -1.279620
H      -0.311500    2.014278    0.798824
H      -0.255335    1.944976   -1.026920
H       2.776502   -0.264020    1.243613
H       2.417072    1.339108    1.889124
H       1.093994   -0.922839    2.870011
H       0.287942    0.652496    2.760388
H       0.267087   -1.768873   -1.566456
H       2.769599   -0.202686   -1.632716
