18

C       0.126043    1.465886   -0.017013
C       0.142453   -0.045617   -0.025462
C      -0.083043   -0.645724   -1.397385
O       0.124377   -2.045305   -1.462496
C       0.055637   -2.672717   -0.221874
C       0.884004   -2.262870    0.957968
C      -0.639590   -2.125925    0.989009
N      -0.571272   -0.619704    1.146838
C       0.929174   -0.729512    1.032135
H       0.976671    1.869059   -0.576927
H      -0.796030    1.843367   -0.472663
H       0.170374    1.841234    1.008261
H      -1.113263   -0.405173   -1.711040
H       0.598017   -0.182885   -2.121879
H      -0.048741   -3.745113   -0.354325
H       1.547980   -2.919176    1.504828
H      -1.401166   -2.652254    1.551956
H       1.574516   -0.188315    1.717599
