15

C      -0.038412    1.556214    0.009358
C       0.019071    0.027161   -0.020742
C       0.731415   -0.527093   -1.254544
C       0.839759   -2.052070   -1.228727
O      -0.012265   -0.085144   -2.389738
H       0.968457    1.988634    0.035262
H      -0.543770    1.938241   -0.880744
H      -0.576530    1.913834    0.892567
H       0.531669   -0.349915    0.872410
H      -0.997272   -0.386387   -0.001853
H       1.749093   -0.099430   -1.288262
H       1.341440   -2.424871   -2.129576
H       1.418220   -2.392291   -0.363409
H      -0.156168   -2.504439   -1.183089
H       0.430908   -0.409016   -3.179796
