23

C      -0.029084    1.543608    0.241589
C      -0.051525    0.047568   -0.095806
O       0.545616   -0.706041    0.973265
C      -1.498773   -0.474636   -0.122639
O      -2.132031   -0.333636    1.131890
C       0.646656   -0.273546   -1.432272
C       2.113545    0.105062   -1.493124
C       3.168705   -0.805859   -0.898729
C       3.052978   -0.653474   -2.394339
H       0.989868    1.893024    0.438627
H      -0.432815    2.139106   -0.584092
H      -0.638310    1.726492    1.129103
H       1.443934   -0.384248    1.096773
H      -2.089635    0.092441   -0.849212
H      -1.483109   -1.528301   -0.444015
H      -1.506718   -0.695827    1.772358
H       0.551215   -1.351647   -1.611561
H       0.105316    0.231789   -2.243386
H       2.314777    1.169688   -1.412471
H       4.024384   -0.359844   -0.402879
H       2.836043   -1.741197   -0.461711
H       2.648956   -1.488509   -2.957357
H       3.825838   -0.099878   -2.915651
