23

C       0.165031    1.481732   -0.009379
C       0.351561   -0.024752   -0.073911
O       0.537081   -0.512773    1.239112
C       0.720281   -1.908089    1.296302
C       0.906577   -2.295124    2.767329
C       1.106297   -3.728296    2.944383
C       1.261625   -4.917297    3.060508
C       1.479199   -6.351734    3.220658
C       2.950065   -6.714039    3.495771
H       1.043049    1.958040    0.436044
H       0.018514    1.891577   -1.013168
H      -0.707245    1.734259    0.600165
H      -0.527695   -0.504513   -0.536848
H       1.222642   -0.280766   -0.701014
H      -0.149579   -2.437713    0.874849
H       1.603074   -2.214361    0.711754
H       1.761129   -1.735359    3.166826
H       0.027072   -1.956541    3.328602
H       0.851323   -6.726642    4.039407
H       1.136961   -6.875148    2.318395
H       3.591523   -6.383438    2.674285
H       3.303171   -6.233540    4.412265
H       3.063164   -7.796617    3.607939
