20

C      -0.032284    1.573845   -0.000972
C       0.089309    0.052035    0.008745
C       0.763172   -0.509170   -1.271808
O       2.037907    0.068997   -1.486153
C       0.895264   -2.032961   -1.175282
N       1.783309   -2.305681   -0.046220
C       1.165255   -1.958343    1.235231
C       0.798494   -0.470807    1.259658
O       1.026264    0.214562    2.227237
H       0.952421    2.026116   -0.136852
H      -0.675601    1.901173   -0.823757
H      -0.450155    1.937342    0.939577
H      -0.916089   -0.399940    0.048624
H       0.146769   -0.239044   -2.136487
H       2.649828   -0.460423   -0.953178
H      -0.101330   -2.498961   -1.069639
H       1.358492   -2.416943   -2.088631
H       2.092110   -3.270173   -0.042581
H       0.235681   -2.530084    1.430047
H       1.859161   -2.150477    2.056108
