16

O       0.064647    1.492638   -0.108058
C       0.075955    0.092040   -0.030518
C       0.002797   -0.575497    1.352134
C      -1.499273   -0.220425    1.551885
C      -1.787067   -1.702347    1.826939
C      -3.083598   -2.258162    1.501992
C      -4.167614   -2.707542    1.238792
N      -0.707453   -1.808567    0.727140
C      -1.306835   -0.545555    0.040296
H       0.970284    1.809278   -0.035345
H       0.773004   -0.374997   -0.738616
H       0.764834   -0.712990    2.121935
H      -1.939984    0.669343    2.006080
H      -1.421461   -2.095759    2.782568
H      -5.122296   -3.109721    1.004902
H      -2.074050   -0.642270   -0.726585
