23

C       0.033408    1.569347    0.096767
C       0.011355    0.041280    0.012630
C       0.698675   -0.498321   -1.242015
O       2.050294   -0.060107   -1.203877
C       0.604004   -2.030754   -1.337214
C       1.186607   -2.612569   -2.625249
O       2.593253   -2.314754   -2.776701
C       0.998735   -4.124737   -2.755478
O       1.578842   -4.611720   -3.944821
H       1.061000    1.939125    0.074120
H      -0.503751    2.018525   -0.746284
H      -0.440839    1.919435    1.018621
H       0.514697   -0.387340    0.888722
H      -1.023129   -0.323117    0.029236
H       0.189549   -0.071900   -2.126469
H       2.495421   -0.457797   -1.963404
H       1.113364   -2.473137   -0.468807
H      -0.449969   -2.330049   -1.273176
H       0.724131   -2.133791   -3.496726
H       3.038061   -2.619170   -1.974885
H       1.426676   -4.617815   -1.862606
H      -0.068055   -4.371885   -2.783370
H       2.424583   -4.152915   -4.028490
