20

C      -0.448886    1.352366    0.251048
C      -0.074890   -0.094093    0.020970
C       0.558102   -0.585342   -1.240998
C       0.931245    0.351853   -2.384003
C       2.436269    0.687033   -2.360088
C       2.811357    1.253240   -1.006320
O       3.418282    2.288584   -0.859010
C       2.402253    0.398915    0.196696
N       1.313829   -0.566722    0.027626
H       0.205498    2.059198   -0.264885
H      -1.473837    1.535430   -0.089288
H      -0.411261    1.591970    1.319470
H      -0.743027   -0.787396    0.532135
H       0.316784   -1.597969   -1.559807
H       0.674975   -0.122269   -3.335660
H       0.357324    1.283373   -2.341231
H       3.012346   -0.235749   -2.514080
H       2.715871    1.401796   -3.136876
H       3.305212   -0.173116    0.459106
H       2.210490    1.066176    1.042264
