17

C       0.155042    1.605869   -0.048229
C      -0.062820    0.085694    0.048850
O      -1.441479   -0.223388    0.095964
C       0.646538   -0.632592   -1.109920
O       0.141452   -0.826437   -2.185402
C       1.980543   -1.120911   -0.549927
N       1.801628   -1.135428    0.902984
C       0.706973   -0.532565    1.202383
N       0.241649   -0.360453    2.475105
H       1.218552    1.864092   -0.051920
H      -0.302719    1.979819   -0.969051
H      -0.316751    2.095886    0.807158
H      -1.703370   -0.427486   -0.813577
H       2.229546   -2.115095   -0.937342
H       2.796054   -0.449735   -0.857754
H       0.674032   -0.947669    3.174218
H      -0.760416   -0.269727    2.556813
