19

C      -0.402720    1.711174    0.319400
C      -0.006890    0.250094    0.141489
C      -1.222142   -0.660529   -0.116868
O      -1.840251   -0.337443   -1.343381
O       0.849963    0.176286   -1.027410
C       1.909313   -0.758882   -0.828512
C       2.033567   -0.921335    0.668189
O       2.131667    0.329794    1.357891
C       0.851027   -0.302406    1.266011
H       0.492829    2.323234    0.440380
H      -0.963896    2.053720   -0.552369
H      -1.037717    1.829560    1.203256
H      -0.897769   -1.715050   -0.096355
H      -1.972756   -0.530833    0.670519
H      -1.115949   -0.245817   -1.976732
H       1.688246   -1.733306   -1.291086
H       2.810574   -0.349003   -1.296742
H       2.570707   -1.759765    1.102575
H       0.401451   -0.625264    2.201527
