20

C       0.217390    1.542783    0.102175
C      -0.034492    0.037497   -0.033696
N       0.651807   -0.487926   -1.207256
C       1.682482   -1.204076   -1.079466
C       2.456961   -1.705510   -2.277529
C       3.046097   -3.093290   -2.015811
O       3.740538   -3.080386   -0.772507
C       2.866879   -2.784255    0.263445
O       2.248959   -1.501899    0.140438
H       1.274934    1.742477    0.301047
H      -0.059104    2.064160   -0.818735
H      -0.370022    1.957600    0.927446
H       0.256914   -0.474577    0.891037
H      -1.107304   -0.131048   -0.186812
H       1.805529   -1.691963   -3.152835
H       3.285494   -1.009263   -2.456913
H       2.252594   -3.857662   -1.991282
H       3.772094   -3.375712   -2.781030
H       2.070059   -3.545094    0.330332
H       3.442477   -2.753070    1.189740
