14

O      -0.086040    0.053307    0.655484
C      -0.056405    1.150164    0.161604
C      -1.284470    1.926609   -0.293724
O      -1.339340    3.205972    0.373236
C      -0.230351    3.989156    0.408777
O      -0.306804    5.138333    0.737327
C       1.063604    3.323530    0.023842
C       1.828508    2.510750    1.034167
N       1.122611    1.873235   -0.064752
H      -1.276657    2.074570   -1.380261
H      -2.188631    1.393709   -0.004247
H       1.630604    3.873175   -0.722346
H       2.912109    2.492582    0.978631
H       1.409600    2.399339    2.030270
