15

O      -0.610305    1.603414    0.840740
C       0.069761    1.165752   -0.053996
C       1.490834    1.630028   -0.331299
C       1.431129    2.727920   -1.351732
C       1.968561    2.842977   -2.615901
C       1.579871    4.108221   -3.136288
C       0.809075    4.725980   -2.178665
N       0.724657    3.882512   -1.101750
H      -0.337762    0.432262   -0.783979
H       1.932608    1.971236    0.612217
H       2.089185    0.805598   -0.729045
H       2.583532    2.101568   -3.103423
H       1.840614    4.518732   -4.099441
H       0.318409    5.685897   -2.172131
H       0.190444    4.045989   -0.264341
