18

O      -0.077095    1.325413   -0.418899
C      -0.010707    0.025915    0.151381
C      -1.390579   -0.572666    0.108625
C      -1.899934   -1.221000   -1.156927
C      -1.592364   -2.067477    0.048990
C      -0.464197   -3.110318    0.098238
O      -1.049009   -4.197055    0.856601
C      -2.298743   -3.778782    1.177881
N      -2.698228   -2.638301    0.795364
H       0.781516    1.744825   -0.307770
H       0.695342   -0.612901   -0.406156
H       0.345815    0.069443    1.193344
H      -2.128376   -0.040015    0.700227
H      -2.943341   -1.090965   -1.418274
H      -1.217113   -1.282121   -1.999575
H      -0.177460   -3.493770   -0.885741
H       0.434626   -2.776751    0.626314
H      -2.873840   -4.488719    1.760526
