19

O      -0.040448    1.402395   -0.040137
C      -0.044791   -0.011787    0.010737
C      -1.453079   -0.514186    0.019475
C      -2.572947    0.217689   -0.050884
C      -3.820540   -0.638705    0.010240
C      -3.285204   -2.071477    0.030822
C      -2.477495   -2.513154   -1.158211
O      -2.500846   -1.847558   -2.381280
C      -1.750142   -1.976954    0.063780
H       0.873689    1.699128   -0.050689
H       0.489821   -0.449820   -0.850559
H       0.472205   -0.385691    0.912772
H      -2.593607    1.295882   -0.144759
H      -4.417581   -0.414661    0.903273
H      -4.478024   -0.468683   -0.853377
H      -3.812830   -2.822882    0.607254
H      -2.404817   -3.583208   -1.324669
H      -2.310408   -0.915486   -2.207882
H      -1.122615   -2.642766    0.648481
