18

N      -0.259470    1.129363    0.790396
C      -0.146680    0.053901    0.154226
C      -1.106569   -1.019488   -0.300283
C       0.158905   -1.695753   -0.898924
C       0.651721   -3.047579   -0.345635
C       0.667903   -4.023422   -1.549937
C       0.507381   -3.109500   -2.739082
C       0.238769   -1.854211   -2.385091
O       0.962999   -0.553530   -0.388075
H       0.646255    1.590610    0.895072
H      -1.601375   -1.569493    0.502104
H      -1.851591   -0.687393   -1.025827
H       1.664353   -2.894460    0.037187
H       0.040260   -3.405948    0.485706
H       1.587615   -4.617052   -1.600714
H      -0.157396   -4.745593   -1.501224
H       0.581302   -3.466113   -3.760766
H       0.059835   -1.020908   -3.054843
