13

O       0.037723    1.386759   -0.043637
C       0.033861   -0.006669   -0.007448
C      -0.514566   -0.709599    1.205128
C      -1.339195   -0.666035   -0.071378
C      -2.554402    0.200693   -0.111912
O      -3.552841   -0.099541   -0.713584
C       1.110262   -0.639952   -0.742761
N       1.989486   -1.127933   -1.313573
H       0.800831    1.703682    0.454174
H      -0.090583   -1.660574    1.503296
H      -0.828285   -0.056949    2.013295
H      -1.419346   -1.574487   -0.656389
H      -2.479069    1.140414    0.471632
