21

C       0.150514    1.692511    0.039693
C      -0.142175    0.191435   -0.065545
C       0.587331   -0.458715   -1.237232
C       2.106668   -0.697436   -1.071709
O       1.946132   -2.127334   -1.178273
C       0.525748   -2.003324   -1.418356
C      -0.296572   -2.856356   -0.451494
C       0.005362   -4.330501   -0.629709
O      -0.825862   -5.173409   -0.854174
H       1.220797    1.882112    0.176899
H      -0.165653    2.220947   -0.866313
H      -0.375573    2.139028    0.888467
H       0.144510   -0.300596    0.871964
H      -1.222787    0.037754   -0.177573
H       0.333777    0.071626   -2.159811
H       2.744386   -0.297985   -1.869442
H       2.530013   -0.407075   -0.101209
H       0.284830   -2.297714   -2.449793
H      -0.036389   -2.583489    0.578957
H      -1.368671   -2.697752   -0.602461
H       1.081925   -4.589834   -0.539061
