13

O       0.482375    1.307230    0.335962
C       0.225921    0.009953    0.135756
N       0.297763   -0.441017   -1.118418
C       0.036142   -1.741996   -1.285251
C       0.116404   -2.248731   -2.691459
O      -0.092221   -3.395046   -2.999748
C      -0.290974   -2.580610   -0.226187
C      -0.331264   -1.983658    1.030750
N      -0.075923   -0.691867    1.229035
H       0.683028    1.686621   -0.530606
H       0.387610   -1.465789   -3.428717
H      -0.497643   -3.629140   -0.391447
H      -0.578250   -2.562723    1.917395
