19

C       0.036703    1.547190    0.358923
C      -0.027772    0.079960   -0.021205
C       1.191772   -0.570518   -0.628116
C       0.773519   -0.912807    0.783659
C      -1.394620   -0.335566   -0.505812
C      -1.812914    0.038665   -1.944664
C      -1.870544   -1.473438   -2.147535
O      -2.136762   -2.243583   -3.011560
O      -1.481281   -1.762035   -0.860691
H       1.036392    1.812231    0.714242
H      -0.194871    2.196323   -0.493902
H      -0.674054    1.782863    1.160077
H       1.051026   -1.336614   -1.381961
H       2.071708    0.047099   -0.772312
H       1.367645   -0.532600    1.607706
H       0.346940   -1.895948    0.944714
H      -2.157421   -0.114679    0.248077
H      -2.770500    0.546569   -2.067558
H      -1.046889    0.536417   -2.542074
