17

O       0.331451    0.066800   -0.060426
C       0.121055    1.242397    0.024272
C      -1.108656    2.097752    0.353598
C      -0.123548    3.262071    0.684111
C       1.043610    2.482736    0.008256
N       2.283798    2.363196    0.749402
C       3.243084    1.469835    0.095858
C       4.481247    1.381156    0.872592
N       5.467731    1.331723    1.471140
H      -1.725452    2.282739   -0.531710
H      -1.751098    1.722010    1.152572
H      -0.359588    4.238107    0.260328
H       0.049433    3.358037    1.757620
H       1.175579    2.812098   -1.041495
H       2.701722    3.280389    0.874750
H       2.792421    0.474812    0.024325
H       3.507622    1.775093   -0.933226
