22

C      -0.111345    1.561582    0.200507
C       0.006077    0.038147    0.112648
C       0.536841   -0.438540   -1.246300
C       0.682077   -1.958787   -1.309951
C       1.310085   -2.649145   -2.556337
C       1.875496   -1.816168   -3.685217
O       2.373696   -3.201076   -1.700406
C       1.860161   -2.580021   -0.584287
N       2.278907   -2.558073    0.599540
H       0.863689    2.042424    0.063648
H      -0.785020    1.955809   -0.569049
H      -0.500274    1.873496    1.174628
H       0.668050   -0.336602    0.900779
H      -0.976416   -0.418167    0.293510
H      -0.141330   -0.109358   -2.045277
H       1.504320    0.038867   -1.442602
H      -0.261823   -2.430527   -1.017444
H       0.706539   -3.474461   -2.947354
H       2.513177   -1.011587   -3.310765
H       2.473414   -2.444762   -4.351803
H       1.064417   -1.373910   -4.273139
H       3.137816   -3.102549    0.698860
