13

C       0.011281    1.412663    0.009085
O       0.034402   -0.002731    0.003817
C      -1.181105   -0.603505    0.011788
C      -1.372971   -1.972761    0.008755
N      -2.720499   -2.149360    0.019229
N      -3.414419   -1.005015    0.028738
C      -2.482765   -0.048602    0.024323
H       1.052081    1.740461    0.001703
H      -0.499702    1.809043   -0.878581
H      -0.485029    1.802628    0.907847
H      -0.673071   -2.791140    0.000264
H      -3.220169   -3.021682    0.020414
H      -2.779623    0.988241    0.030250
