21

C       0.172444    1.602921   -0.044663
C       0.047898    0.090161    0.051389
C       0.944081   -0.778987   -0.877746
C       1.286517   -1.722038    0.319683
C       2.744006   -2.031419    0.518605
O       3.197430   -3.115275    0.786360
C       0.671829   -0.649219    1.250557
C       1.348120   -0.018600    2.440872
C       0.101832   -0.852306    2.619870
H       1.215802    1.921385    0.054330
H      -0.198573    1.962771   -1.010588
H      -0.407822    2.106097    0.737263
H      -1.004158   -0.199741   -0.057538
H       0.471794   -1.250087   -1.741551
H       1.827258   -0.227683   -1.219266
H       0.719466   -2.656359    0.318755
H       3.411528   -1.143949    0.403462
H       2.290041   -0.432622    2.785673
H       1.268056    1.056681    2.561902
H      -0.825578   -0.340732    2.859695
H       0.202733   -1.831546    3.077199
