19

C      -0.000183    1.420827    0.030363
O      -0.013270    0.006941    0.020974
C       0.600396   -0.573009   -1.045109
C       0.685172   -1.944977   -1.221525
C       0.174658   -3.056695   -0.370299
N       1.365605   -2.114697   -2.392468
C       1.717773   -3.365176   -3.025937
N       1.718349   -0.953753   -2.971974
C       1.255227   -0.003515   -2.156245
H       1.025730    1.813090    0.052075
H      -0.517129    1.833350   -0.846813
H      -0.523599    1.733060    0.935786
H      -0.544287   -3.692168   -0.901699
H       0.979785   -3.706844   -0.006622
H      -0.331948   -2.633008    0.499470
H       0.824527   -3.947500   -3.276437
H       2.257055   -3.120532   -3.940291
H       2.359744   -3.970546   -2.377038
H       1.410923    1.035676   -2.400078
