18

C       0.076116    1.538265    0.127931
C      -0.043972    0.013908   -0.044689
C       0.667504   -0.503975   -1.259651
C       0.102090   -0.924585   -2.437953
N       1.109936   -1.300113   -3.296847
C       2.320640   -1.131791   -2.693411
C       2.093907   -0.636046   -1.420459
C       3.079981   -0.328370   -0.454740
C       3.903101   -0.062038    0.385149
H       1.124809    1.835296    0.217567
H      -0.350630    2.063334   -0.732616
H      -0.450653    1.871920    1.028021
H       0.360873   -0.476428    0.848954
H      -1.102287   -0.266263   -0.099924
H      -0.933135   -0.990473   -2.732945
H       0.975056   -1.655682   -4.226707
H       3.244335   -1.373102   -3.192963
H       4.633089    0.169749    1.119842
