23

C       0.098793    1.356842    0.932583
C       1.228769    0.865314    0.059547
C       2.576009    0.404838    0.617805
C       2.660343   -0.948537    1.328591
C       2.052243   -2.124159    0.512341
C       0.764482   -2.018363    1.377569
C       1.595777   -1.227508    2.428852
C      -0.377743   -1.261952    0.694111
C      -0.098152    0.116540    0.093834
H       0.198596    1.229083    2.004751
H      -0.421815    2.266495    0.650397
H       1.357087    1.449149   -0.848699
H       3.283673    0.363817   -0.220880
H       2.958824    1.184893    1.290117
H       3.696521   -1.093863    1.650069
H       1.938122   -1.971262   -0.565355
H       2.586717   -3.063737    0.677802
H       0.366548   -2.972952    1.736094
H       1.992232   -1.894776    3.199869
H       1.128858   -0.377107    2.930519
H      -0.740780   -1.907164   -0.116919
H      -1.216417   -1.171179    1.397975
H      -0.699486    0.288645   -0.795557
