17

O       0.007378    0.174049   -0.596528
C      -0.001660    1.339847   -0.300872
C      -1.080495    2.368546   -0.048136
C      -2.389531    2.422402   -0.754118
N      -2.329475    2.140518    0.680197
C      -0.018027    3.451001    0.234436
C       1.061135    2.380311   -0.029054
C       2.371906    2.110374    0.622016
N       2.310538    2.545107   -0.773537
H      -2.800322    3.394270   -1.013372
H      -2.618756    1.614889   -1.444910
H      -2.439953    1.140723    0.845157
H      -0.008135    4.279459   -0.476891
H      -0.037360    3.840131    1.254551
H       2.769490    2.847182    1.314498
H       2.615462    1.074718    0.845422
H       2.434921    1.746427   -1.394539
