19

O      -0.040740    1.446135   -0.148800
C      -0.027471    0.043592   -0.037180
C      -1.403085   -0.573378   -0.090224
C      -2.614430    0.142610    0.461059
C      -2.448982   -0.024172   -1.027811
C       1.098817   -0.642876   -0.866805
C       2.171412   -0.038418    0.069777
C       1.024905   -0.617182    0.930420
O       1.002675   -1.805216    0.047973
H      -0.532632    1.802837    0.598276
H      -1.384943   -1.647446    0.040280
H      -3.358439   -0.453443    0.977457
H      -2.508378    1.145462    0.864012
H      -2.188240    0.863274   -1.593005
H      -3.090250   -0.726402   -1.548253
H       1.135752   -0.847481   -1.937221
H       3.097142   -0.611954    0.116803
H       2.317409    1.040403    0.056612
H       0.974256   -0.792890    2.006328
