19

C       0.065698    1.586057    0.010820
C       0.101267    0.088270    0.006832
C       0.620187   -0.811359   -1.130315
C       1.207035   -1.815021   -0.089931
O       2.627202   -1.826155    0.000675
C       0.586972   -0.987032    1.022496
O       1.100376   -0.924647    2.300719
C      -0.872042   -0.751042    0.829076
O      -1.501313   -0.089698    1.886811
H       1.061177    2.020381   -0.138103
H      -0.582746    1.964626   -0.789283
H      -0.333644    1.948573    0.960924
H      -0.137454   -1.212820   -1.813285
H       1.413361   -0.351800   -1.729886
H       0.906563   -2.865474   -0.164186
H       2.948096   -0.950802   -0.244756
H       2.052094   -1.069682    2.220395
H      -1.517921   -1.487893    0.342570
H      -1.010336   -0.295043    2.691836
