17

C       0.129609    1.250631    0.232404
O      -0.230597   -0.031380   -0.252912
C       0.595128   -0.536484   -1.253281
C       0.429983    0.093896   -2.619159
C       1.925485   -1.088791   -0.823791
C       0.782548   -2.042894   -1.176697
C       0.146511   -2.797510   -0.134509
N      -0.360282   -3.431078    0.689745
H       1.169803    1.272267    0.585410
H      -0.000229    2.032851   -0.527524
H      -0.536530    1.462097    1.070873
H       0.741367    1.143291   -2.609412
H       1.038944   -0.423141   -3.365676
H      -0.617610    0.048881   -2.931196
H       2.767027   -1.051799   -1.506131
H       2.175280   -1.016776    0.227848
H       0.854313   -2.569821   -2.122318
