17

O      -0.276675    0.149650    0.633466
C      -0.163287    1.268410    0.211721
C      -1.299604    2.174057   -0.275127
O      -0.692253    3.383865   -0.685830
C       0.531653    3.522174    0.034430
C       1.117915    2.106617    0.114820
C       2.123059    1.859435    1.253350
C       2.872219    0.617260    1.112469
C       3.516612   -0.387181    0.976318
H      -1.844279    1.730690   -1.114130
H      -2.010659    2.324885    0.553953
H       1.157575    4.231279   -0.511103
H       0.349644    3.924122    1.045970
H       1.585610    1.864779   -0.848184
H       2.829316    2.699406    1.287452
H       1.591593    1.865825    2.213288
H       4.067729   -1.288175    0.867793
