17

C      -0.007625    1.574384   -0.000940
C       1.492946    1.921335    0.009589
O       2.083835    1.912241    1.325474
C       2.450463    0.501839    1.201367
C       1.484699   -0.387529    1.931625
C       0.276574   -0.567532    1.394739
C       0.008765    0.017562    0.023852
O       1.147010   -0.302413   -0.804992
C       2.142832    0.563422   -0.341141
H      -0.536415    2.016947    0.844548
H      -0.464902    1.919755   -0.933319
H       1.746130    2.826270   -0.547727
H       3.491294    0.350367    1.499480
H       1.774249   -0.834970    2.876943
H      -0.495047   -1.156490    1.880263
H      -0.870613   -0.427686   -0.444242
H       3.006605    0.522644   -1.002341
