16

O       0.707174    0.830768   -0.751649
C       0.163319   -0.248786   -0.058825
C       0.141399   -0.235715    1.508465
C      -1.358390   -0.635019    1.468910
O      -2.263617    0.323146    2.011291
C      -2.549078    1.255068    1.057689
N      -3.207950    2.314064    1.195565
O      -2.010291    0.898131   -0.144678
C      -1.386611   -0.383406   -0.055229
H       0.082238    1.563671   -0.675224
H       0.635249   -1.156769   -0.445243
H       0.818813   -0.929794    2.008378
H       0.283769    0.764108    1.925708
H      -1.624178   -1.621573    1.845206
H      -3.507792    2.418359    2.161785
H      -1.873074   -1.073289   -0.747208
