17

O      -0.159288    1.333757    0.050636
N       0.028399   -0.064377    0.018213
C      -1.090809   -0.662871   -0.001060
C      -2.519951   -0.153172    0.004643
N      -3.296771   -1.416855   -0.028941
C      -2.548134   -2.412096    0.863385
C      -3.000754   -3.540141   -0.078160
C      -2.539926   -2.368666   -0.960850
C      -1.290467   -2.134806   -0.037006
H       0.746714    1.660143    0.062460
H      -2.758927    0.425344    0.902325
H      -2.750964    0.467467   -0.866600
H      -2.608652   -2.351528    1.952091
H      -2.389995   -4.443694   -0.096924
H      -4.070799   -3.750606   -0.087984
H      -2.590659   -2.256344   -2.045941
H      -0.425259   -2.796176   -0.048861
