21

C      -0.732377    0.627427    0.866870
O      -0.177664   -0.670238    0.883089
C       1.244797   -0.682556    0.833096
C       1.747442   -2.119045    0.934453
C       1.533438   -2.769753    2.286775
C       0.155190   -3.201351    2.764468
O      -0.933032   -3.127990    1.891009
C       1.168518   -4.246678    2.380257
O       0.905673   -4.956603    1.211690
H      -0.457241    1.166802   -0.051233
H      -1.818622    0.520949    0.905071
H      -0.398402    1.219033    1.732037
H       1.577063   -0.227406   -0.113390
H       1.646817   -0.067978    1.655120
H       1.278328   -2.720464    0.150760
H       2.820971   -2.111612    0.709883
H       2.185405   -2.400690    3.075663
H      -0.095252   -3.053173    3.813759
H      -0.914805   -2.243546    1.486188
H       1.642816   -4.852704    3.147013
H       0.002682   -4.702918    0.963373
