19

C      -0.057936    1.501982    0.030738
C       0.022258   -0.007358    0.024302
C      -1.265980   -0.785057   -0.305744
C      -1.311000   -1.988648    0.625806
O      -0.277490   -2.969684    0.409721
C      -0.103997   -1.987748    1.468133
C       0.757649   -0.802272    1.125167
C       1.335135   -0.683461   -0.280078
O       1.506896   -1.740176   -1.160162
H       0.903093    1.946291    0.308994
H      -0.323685    1.888804   -0.960307
H      -0.810069    1.863623    0.742670
H      -2.139861   -0.152908   -0.114227
H      -1.308096   -1.091602   -1.357470
H      -2.263350   -2.413861    0.931840
H      -0.070132   -2.416071    2.465039
H       1.265980   -0.309594    1.947309
H       2.176993    0.001447   -0.358659
H       0.929065   -2.456500   -0.853512
