22

C       0.192349    1.514868   -0.708541
C       0.097056    0.076422   -0.506575
C       0.023686   -1.113711   -0.327184
C      -0.037590   -2.542619   -0.168440
C      -0.333709   -3.139787    1.176767
N      -1.301527   -3.256714    0.102311
C      -2.542264   -2.480327    0.219489
C      -3.117614   -2.256664   -1.179787
C      -3.510482   -3.251271    1.118749
H       1.233170    1.823450   -0.857082
H      -0.376306    1.835926   -1.588422
H      -0.194705    2.065204    0.156202
H       0.623447   -3.095936   -0.832359
H       0.162757   -4.056675    1.484370
H      -0.537501   -2.432840    1.979830
H      -2.342915   -1.496478    0.676522
H      -2.419111   -1.689729   -1.801179
H      -3.313360   -3.216481   -1.668466
H      -4.056627   -1.696945   -1.124443
H      -3.089835   -3.400102    2.118282
H      -4.452258   -2.704213    1.225973
H      -3.727518   -4.235841    0.692410
