25

C       1.042793   -0.826834   -0.891556
C       0.024900   -0.021213   -0.074534
C      -0.045908    1.433227   -0.586794
C      -1.347846   -0.648200   -0.040915
C      -1.811609   -1.642640   -0.803268
C      -3.241260   -2.009700   -0.489712
C      -3.704680   -0.837681    0.409984
C      -2.403583   -0.202157    0.968676
C      -2.070763   -0.676890    2.395577
H       2.033546   -0.364739   -0.833849
H       1.124395   -1.855082   -0.527022
H       0.759121   -0.865555   -1.949175
H       0.392387    0.023286    0.961594
H      -0.395620    1.457677   -1.624602
H      -0.728813    2.043492    0.011171
H       0.942104    1.904080   -0.550104
H      -1.234885   -2.170543   -1.554489
H      -3.860606   -2.114675   -1.388172
H      -3.294795   -2.978213    0.028304
H      -4.236074   -0.101674   -0.201692
H      -4.389052   -1.152148    1.203565
H      -2.493150    0.890971    0.995551
H      -2.006608   -1.769746    2.438478
H      -1.114709   -0.273725    2.745306
H      -2.843453   -0.354574    3.101648
