18

C      -0.064548    1.553564    0.009763
C       1.482276    1.540496    0.028756
C       2.201044    1.435629    1.394614
C       2.048055   -0.112345    1.273548
C       0.955938   -0.757547    2.108817
O      -0.096097    0.138141    2.491546
C      -0.300622   -0.692133    1.340749
C      -0.004782   -0.005485    0.018752
N       1.500925    0.032371   -0.130188
H      -0.559308    2.010829    0.867874
H      -0.480041    1.964629   -0.912457
H       1.983179    2.134418   -0.740135
H       3.239553    1.771010    1.361159
H       1.697622    1.893343    2.247432
H       2.974713   -0.691131    1.314428
H       1.182113   -1.542375    2.826006
H      -1.099505   -1.423600    1.431374
H      -0.504774   -0.510011   -0.812405
