14

N      -0.018240   -1.170270   -0.071839
C      -0.019017   -0.015340   -0.061021
C      -0.025006    1.464146   -0.081452
N      -0.627951    2.028450    1.129983
C       0.209455    3.112231    1.658860
C       1.495971    2.957999    0.877458
C       1.372630    2.041264   -0.084570
C       2.655123    3.728981    1.159085
N       3.580356    4.377950    1.410398
H      -0.548367    1.756915   -1.008280
H      -1.591693    2.296130    0.994910
H      -0.219969    4.113130    1.500515
H       0.379200    3.001213    2.737581
H       2.133705    1.733497   -0.787741
