18

C       0.054641    1.389989   -0.105440
O       1.136012    0.464169   -0.208548
C      -0.185849   -0.055413   -0.022189
C      -0.442312   -0.732186    1.294746
N      -1.888211   -0.916145    1.629476
C      -1.679312   -2.350282    1.953186
C      -1.968452   -3.245946    0.739350
O      -0.643985   -2.986352    0.198466
C      -0.244444   -2.268966    1.381344
H       0.040892    1.993692    0.801993
H      -0.194618    1.925406   -1.020373
H      -0.600586   -0.568582   -0.887678
H       0.135684   -0.225363    2.079813
H      -2.203440   -0.353324    2.409894
H      -1.959334   -2.686075    2.952054
H      -2.094613   -4.312457    0.966095
H      -2.768021   -2.898822    0.077608
H       0.676455   -2.656250    1.821041
