19

C      -0.080355    1.476526    0.027221
C       0.088031   -0.022272    0.014773
O      -1.245468   -0.684067    0.049028
C      -0.965525   -1.781393    0.895656
C      -0.448813   -1.092425    2.174766
C       0.729914   -0.746515    1.238469
C       0.581056   -2.146218    0.563342
C       0.993908   -1.955577   -0.854442
C       0.760816   -0.675991   -1.176205
H       0.893184    1.970329   -0.054187
H      -0.698950    1.797999   -0.816454
H      -0.566025    1.809529    0.948713
H      -1.768303   -2.516159    0.861232
H      -1.066144   -0.286182    2.577287
H      -0.151886   -1.789656    2.961874
H       1.697523   -0.375628    1.576960
H       0.952165   -3.006858    1.117463
H       1.332221   -2.742339   -1.517586
H       0.857675   -0.208770   -2.148543
