19

O       0.195010    1.426714    0.306888
C       0.082440    0.050523    0.015100
C      -1.362919   -0.478061    0.048526
C      -2.179237   -0.069621   -1.203009
C      -2.278554    1.367518   -1.441036
C      -2.370545    2.548942   -1.651458
C      -1.384290   -2.022540    0.161277
C      -0.832876   -2.525046    1.413253
C      -0.382570   -2.925017    2.453450
H      -0.329132    1.912275   -0.341082
H       0.534849   -0.200288   -0.961537
H       0.664509   -0.468332    0.782531
H      -1.844185   -0.055642    0.937143
H      -1.731590   -0.544788   -2.087455
H      -3.194148   -0.479214   -1.119815
H      -2.464594    3.590892   -1.835709
H      -2.417109   -2.378457    0.055353
H      -0.829068   -2.455062   -0.683253
H       0.014915   -3.283121    3.370654
