21

C       0.007799    1.562717   -0.068006
C       1.552175    1.561948    0.094633
C       1.459074    0.106830    0.623070
C       0.028460    0.011755    0.026702
C       2.436605   -1.036564    0.406088
C       3.420840   -1.051393    1.586781
C       3.046027    0.110481    2.505190
C       1.573218   -0.222082    2.139953
C       2.053478   -1.673247    1.724305
H      -0.493797    2.018707    0.790022
H      -0.403103    2.002378   -0.979534
H       2.067682    1.609360   -0.870193
H       1.994974    2.311851    0.756404
H      -0.739276   -0.477096    0.633493
H       0.033621   -0.454495   -0.964078
H       2.673350   -1.535913   -0.526191
H       4.372197   -1.562031    1.504840
H       3.263847   -0.125310    3.550938
H       3.414168    1.116547    2.271848
H       0.756910    0.022149    2.818489
H       1.729494   -2.671425    1.978506
