17

C      -0.019983    1.480845    0.045489
C      -0.000553   -0.012012   -0.019004
C      -0.034382   -0.782864   -1.126343
C       0.002524   -2.187316   -0.746279
C       0.003325   -3.466594   -1.200460
O       0.060026   -4.326991   -0.135543
C       0.095536   -3.573004    1.007504
C       0.062564   -2.259930    0.689551
C       0.064433   -0.865448    1.250769
H       0.876750    1.871707    0.543877
H      -0.071956    1.923407   -0.952744
H      -0.878914    1.845451    0.623851
H      -0.081869   -0.407747   -2.141485
H      -0.029386   -3.933435   -2.170447
H       0.141736   -4.135399    1.925557
H       0.963295   -0.635534    1.838492
H      -0.789989   -0.662057    1.910183
