25

C      -0.102672    1.583807    0.066416
C      -0.081087    0.056244   -0.033500
C       0.764148   -0.460081   -1.204222
C       0.788912   -1.990086   -1.289136
C       1.533940   -2.555446   -2.510148
C       3.038462   -2.207495   -2.512502
C       1.407644   -4.081835   -2.562362
C       1.341793   -4.712373   -3.942715
O       1.375173   -4.751423   -1.554902
H       0.907155    1.985723    0.206038
H      -0.513307    2.034746   -0.844084
H      -0.714083    1.921279    0.909179
H       0.303767   -0.367995    0.903165
H      -1.107505   -0.320111   -0.135406
H       0.371096   -0.044319   -2.143470
H       1.784567   -0.068978   -1.103269
H       1.235102   -2.413859   -0.382626
H      -0.244215   -2.360642   -1.310688
H       1.091365   -2.146054   -3.428712
H       3.190661   -1.126777   -2.567363
H       3.515107   -2.577673   -1.599172
H       3.555608   -2.655345   -3.367354
H       2.116441   -4.307821   -4.602563
H       1.439782   -5.796050   -3.867100
H       0.376751   -4.468881   -4.404030
