13

F       0.148973    0.083025    0.045961
C      -0.008787    1.409253   -0.003999
F       1.194592    1.965156   -0.195055
F      -0.770108    1.692627   -1.069979
C      -0.636580    1.945091    1.273505
N      -1.926203    1.318292    1.618536
C      -1.492079    0.950098    2.992722
C      -0.073000    1.395664    2.613253
O       1.002933    1.351979    3.117163
H      -0.617218    3.041691    1.225370
H      -2.722107    1.940665    1.571556
H      -1.911360    1.553996    3.808977
H      -1.614843   -0.110069    3.237780
