16

O      -0.026267    1.411890   -0.038689
C       0.019319    0.033151   -0.030094
C      -1.111430   -0.982042    0.114157
C      -0.577637   -1.797374   -1.061520
C       0.655838   -0.838734   -1.118230
O       1.900572   -1.450489   -0.733729
C       1.875736   -1.991392    0.510667
N       1.015594   -1.817848    1.426598
C      -0.016244   -0.845858    1.177421
H       0.664975    1.747778    0.542350
H      -2.149398   -0.808799    0.368451
H      -0.342271   -2.847820   -0.872504
H      -1.200474   -1.721222   -1.955727
H       0.838181   -0.351804   -2.074477
H       2.737412   -2.637459    0.665433
H      -0.378976   -0.369809    2.083354
