20

C      -0.138232    1.556998    0.050190
C       0.042719    0.043316    0.019992
C       0.909191   -0.529533   -1.108779
C       2.386586   -0.364520   -0.636508
C       2.199596   -0.058004    0.867099
N       0.814917   -0.528772    1.167688
C       0.792014   -1.975329    0.800876
C       1.201466   -1.999169   -0.693190
O       2.632608   -1.786612   -0.790514
H       0.796471    2.102297   -0.106970
H      -0.829496    1.862250   -0.741596
H      -0.558980    1.869440    1.010299
H      -0.949385   -0.423062    0.026576
H       0.673537   -0.322826   -2.150218
H       3.111223    0.247713   -1.177290
H       2.930536   -0.596511    1.473883
H       2.278932    1.008574    1.091901
H       1.486745   -2.550951    1.416499
H      -0.222015   -2.360548    0.953129
H       0.861539   -2.855377   -1.279874
