19

C      -0.030138    1.539122   -0.105847
C      -0.014644    0.041226    0.079090
O       1.222809   -0.642926   -0.117622
C       0.634683   -0.660652    1.205477
C       1.361469    0.102681    2.300624
O       2.129538   -0.760229    3.119492
C       1.341755   -1.722779    3.789474
C       0.404038   -2.448760    2.865141
C       0.113191   -1.972984    1.655365
H       0.826321    2.021119    0.369266
H      -0.005043    1.782995   -1.173123
H      -0.948591    1.965076    0.312263
H      -0.868773   -0.469005   -0.374898
H       2.063900    0.814639    1.864951
H       0.626392    0.656870    2.910674
H       2.046882   -2.426254    4.246228
H       0.774634   -1.256253    4.618082
H      -0.018011   -3.384979    3.220084
H      -0.521345   -2.519606    0.963793
