14

O      -0.045324    1.443464    0.010184
C       0.028151    0.027266    0.001919
C      -1.396304   -0.511326    0.012569
C      -1.435264   -2.051145    0.004702
C      -2.791648   -2.585095    0.014702
C      -3.917938   -3.004452    0.023200
H       0.850600    1.792447    0.003562
H       0.558872   -0.341010   -0.892133
H       0.575720   -0.350495    0.881740
H      -1.915183   -0.131981    0.898678
H      -1.931882   -0.122590   -0.859420
H      -0.903896   -2.429074   -0.879222
H      -0.887246   -2.438457    0.874287
H      -4.909232   -3.384117    0.030735
