14

N      -0.171808    1.402297    0.050469
C       0.017109    0.023841   -0.034009
C       0.907415   -1.003553   -0.830975
C      -0.178835   -2.013655   -0.792014
N       0.837052   -1.981153    0.312345
C      -0.049894   -0.996221    1.060810
C      -1.118451   -1.047229   -0.028122
C      -2.514764   -0.852308    0.016690
N      -3.663710   -0.700336    0.034387
H       0.632757    1.892914    0.423857
H      -0.455547    1.827334   -0.824734
H       1.782971   -0.913104   -1.463360
H      -0.379697   -2.895067   -1.387614
H      -0.148433   -0.921324    2.135903
