21

C      -0.261282    1.430041   -0.114164
C       0.030142   -0.071657   -0.014815
C       0.780920   -0.589662   -1.254634
O       0.048402   -0.412571   -2.458050
C       0.855148   -0.415567    1.249078
O       2.091589    0.249492    1.238192
C       0.109079   -0.085993    2.544872
C      -1.224242   -0.745334    2.808206
O       0.615225    0.690920    3.328501
H       0.673114    1.998894   -0.120742
H      -0.819283    1.651676   -1.028221
H      -0.863068    1.789045    0.727288
H      -0.917753   -0.622897    0.035817
H       1.769755   -0.115312   -1.307484
H       0.940493   -1.669627   -1.155180
H       0.170325    0.494552   -2.751010
H       1.020869   -1.508786    1.255797
H       2.110577    0.755818    2.067892
H      -2.000192   -0.259989    2.205161
H      -1.210310   -1.801925    2.524796
H      -1.483380   -0.639568    3.862387
