18

C      -0.007341    1.505463   -0.002739
C       0.011076    0.013080    0.016290
C       0.232390   -0.989469   -1.109992
C       0.833942   -2.007144   -0.098920
C       0.616439   -1.008900    1.033774
C      -0.473108   -2.015548    0.684761
C      -1.101573   -3.087253    1.512036
C      -1.079409   -0.992958   -0.331550
H       1.007416    1.921109   -0.020209
H      -0.531564    1.873176   -0.892123
H      -0.520352    1.913560    0.876600
H       0.405445   -0.812270   -2.163765
H       1.582015   -2.783480   -0.196230
H       1.166562   -0.883207    1.958158
H      -1.848490   -2.677408    2.202762
H      -1.600560   -3.838319    0.887764
H      -0.344577   -3.604823    2.112124
H      -2.089740   -0.819299   -0.680820
