21

C      -0.126174    1.572060    0.014609
C       0.034010    0.050657    0.074298
C       0.783781   -0.549219   -1.166670
C       1.430407   -1.825255   -0.596064
C       0.721766   -3.117916   -0.970819
O       2.899020   -2.022334   -0.683408
C       3.007655   -2.064981    0.772281
C       1.626151   -1.469641    0.847628
C       0.923967   -0.413625    1.236330
H       0.850624    2.066690   -0.028484
H      -0.693698    1.871397   -0.872766
H      -0.657720    1.951374    0.893880
H      -0.970362   -0.392583    0.144798
H       0.126040   -0.721011   -2.024915
H       1.576053    0.143339   -1.470279
H       0.902916   -3.346313   -2.026487
H       1.083479   -3.959662   -0.373670
H      -0.359495   -3.027034   -0.822190
H       3.120380   -3.096670    1.130742
H       3.832040   -1.454500    1.155149
H       1.026024    0.151165    2.156501
