16

C      -1.760733    1.742781    0.730268
O      -2.132370    0.375326    0.909247
C      -1.710456   -0.469052   -0.058794
N      -1.035332   -0.104507   -1.060303
N      -2.165853   -1.753290    0.285402
C      -1.954353   -2.912361   -0.434713
C      -2.574101   -4.145654    0.198463
O      -1.331191   -2.942506   -1.476591
H      -2.176148    2.274167    1.587443
H      -0.673004    1.846953    0.701353
H      -2.171047    2.135636   -0.203620
H      -0.832545   -0.907871   -1.652462
H      -2.693654   -1.802858    1.143445
H      -2.361432   -5.006360   -0.434076
H      -2.161577   -4.318552    1.198021
H      -3.658086   -4.028107    0.300014
