20

C       0.020954    1.591462   -0.012392
C       0.045433    0.060408   -0.034909
C       0.744718   -0.513578   -1.272092
C       0.547424   -2.027305   -1.326677
N       0.909271   -2.641834   -0.053542
C       1.052566   -2.014664    1.141526
O       1.502834   -2.575662    2.130414
C       0.695511   -0.522062    1.226430
O       1.908098    0.170407    1.499458
H       1.035518    1.996293   -0.008887
H      -0.507715    1.980354   -0.888629
H      -0.488276    1.964017    0.882354
H      -0.993578   -0.300764   -0.041304
H       0.345232   -0.068029   -2.188678
H       1.813669   -0.276312   -1.224984
H      -0.499202   -2.256838   -1.576375
H       1.168237   -2.470550   -2.112779
H       1.181051   -3.614813   -0.044837
H       0.003395   -0.421081    2.077137
H       2.356832   -0.351926    2.177086
