18

C      -0.028336    1.552760    0.054573
C       0.032269    0.052530    0.010049
C      -0.853156   -0.827958    0.846573
C       0.635509   -0.952129    1.017935
C       1.239231   -1.745889   -0.156374
O       0.431048   -2.816740   -0.714859
C      -0.065584   -1.945733   -1.766033
C       0.674293   -0.734364   -1.166057
H       0.931807    2.002540   -0.224011
H      -0.787865    1.940663   -0.635827
H      -0.284691    1.907141    1.058354
H      -1.358909   -0.310089    1.655976
H      -1.417364   -1.656156    0.431401
H       1.124548   -0.771746    1.968606
H       2.295844   -2.011898   -0.078131
H       0.311517   -2.260094   -2.747252
H      -1.160963   -1.908514   -1.795846
H       1.315806   -0.142119   -1.817672
