21

C      -0.047554    1.519099   -0.333220
C       0.028114    0.005165   -0.116490
C      -1.317674   -0.572760    0.291433
O      -2.337436   -0.412431   -0.729103
C      -2.381290   -1.832077   -0.985915
C      -1.473708   -2.112697    0.238278
O      -0.281416   -2.815831    0.001951
C      -2.193567   -2.697831    1.443920
O      -2.357236   -4.088295    1.176342
H       0.915165    1.918490   -0.665536
H      -0.798193    1.757868   -1.091930
H      -0.325918    2.040865    0.589623
H       0.370694   -0.495292   -1.027695
H       0.758246   -0.239887    0.664465
H      -1.652081   -0.115414    1.235514
H      -3.402430   -2.228473   -0.958368
H      -1.905492   -2.099370   -1.937153
H      -0.481078   -3.743388    0.185532
H      -1.576869   -2.537330    2.341039
H      -3.160492   -2.196324    1.591188
H      -2.641988   -4.529747    1.981127
