17

O       0.012670   -0.011337   -0.099497
C      -0.042428    1.196951   -0.043706
C      -1.207812    2.059392    0.458436
C      -0.858066    3.486901    0.000742
C       0.663109    3.453662   -0.162885
C       1.443826    4.542024   -0.830109
C       1.594080    4.306131    0.664134
N       0.952206    2.066905   -0.409770
H      -2.156132    1.682734    0.072329
H      -1.239867    1.970801    1.550212
H      -1.324561    3.695576   -0.968081
H      -1.178105    4.262233    0.699889
H       2.272166    4.260232   -1.472509
H       0.907375    5.424809   -1.163393
H       1.162492    5.031482    1.346207
H       2.519408    3.858784    1.012188
H       1.860391    1.722848   -0.679104
