19

C      -0.043253    1.502133    0.043746
C      -0.051592    0.010651   -0.020913
C      -0.054620   -0.798298   -1.079710
C       0.053678   -2.232448   -0.561631
O      -0.518475   -2.124611    0.747075
C       0.026026   -0.889529    1.214438
C       1.494849   -1.155533    1.632882
C       2.183999   -2.062716    0.633328
C       1.527563   -2.583740   -0.403303
H       0.859912    1.878731    0.540908
H      -0.084004    1.946227   -0.954387
H      -0.896478    1.880826    0.620970
H      -0.028725   -0.518629   -2.125247
H      -0.506505   -2.982002   -1.125709
H      -0.574860   -0.540497    2.059962
H       2.049289   -0.212308    1.733876
H       1.510532   -1.623745    2.625888
H       3.238775   -2.270752    0.793761
H       2.012174   -3.215334   -1.141202
