18

C      -0.183517    1.538799   -0.035687
C      -0.015355    0.038359    0.033631
C       1.319901   -0.604467   -0.256634
C       0.766169   -0.619100    1.145442
N       1.393792    0.182954    2.152065
C       2.705878    0.404815    2.388182
N       2.867661    1.148252    3.466512
C       1.584312    1.352613    3.873033
N       0.654813    0.790682    3.118649
H       0.728095    2.059286    0.270093
H      -0.420247    1.850154   -1.058242
H      -0.990878    1.873004    0.622359
H      -0.888390   -0.528894   -0.276692
H       1.361998   -1.546808   -0.790293
H       2.150241    0.063266   -0.459652
H       0.387210   -1.559206    1.533128
H       3.486573    0.009749    1.756773
H       1.328060    1.933388    4.746783
