18

C      -0.150831    1.525242   -0.044247
C       0.095164    0.012633   -0.049463
C       0.753115   -0.507991    1.224360
O       2.059946    0.002176    1.416947
C      -0.103156   -0.489810    2.559972
C       0.054752   -2.012898    2.617114
O      -0.500796   -2.538405    1.401199
C       0.839025   -2.041536    1.376557
H       0.786206    2.090909    0.022370
H      -0.646467    1.842534   -0.966121
H      -0.787363    1.827584    0.794637
H      -0.851353   -0.521348   -0.178813
H       0.737557   -0.253822   -0.897950
H       1.999503    0.959190    1.503136
H       0.441313    0.029308    3.351935
H      -1.133754   -0.129819    2.505227
H       0.070349   -2.672607    3.476491
H       1.629219   -2.699108    1.032739
