15

O      -0.654977    0.783079    0.381372
C       0.027861    1.205459   -0.512587
C       1.359375    1.907180   -0.290933
C       1.518334    3.139097   -1.209189
N       0.491082    4.146661   -0.987848
C      -0.511589    4.343561   -1.895611
O      -0.654437    3.691216   -2.905941
C       2.855072    3.729708   -1.057779
N       3.904399    4.188738   -0.907251
H      -0.270231    1.094221   -1.577831
H       1.451686    2.176811    0.764344
H       2.160067    1.192954   -0.526279
H       1.391254    2.827848   -2.252745
H       0.549087    4.737518   -0.172788
H      -1.186179    5.165593   -1.596175
