19

C      -0.031960    1.583714   -0.015318
C       0.031311    0.079641   -0.153316
C       0.653109   -0.668908   -1.265956
C       1.912553    0.021813   -1.805166
C       2.433027   -0.014284   -0.343648
N       1.216543   -0.755225    0.150657
N       2.678590   -0.763294   -2.744070
C       3.099262   -0.288851   -3.950226
O       2.898364    0.828449   -4.374703
H       0.777580    2.105702   -0.529168
H      -0.974746    1.948642   -0.435359
H      -0.004975    1.872435    1.040903
H      -0.851047   -0.413838    0.251949
H       0.174811   -1.516190   -1.750383
H       1.771652    0.996702   -2.273997
H       3.313686   -0.651503   -0.232091
H       2.625198    0.940995    0.153573
H       2.905157   -1.716690   -2.504150
H       3.662583   -1.058094   -4.514627
