15

O      -0.083708    1.357470    0.124580
C       0.060236   -0.013855    0.055012
C       0.551115   -0.927320   -1.094490
N       0.081684   -1.930448   -0.026147
C       0.797896   -1.010906    0.983918
C      -1.134544   -1.004939    0.129739
C      -1.992524   -1.098093    1.362474
O      -1.767321   -1.765665    2.340145
H       0.789446    1.765343    0.102047
H      -0.031237   -0.960320   -2.018458
H       1.625841   -0.983280   -1.284528
H       1.886529   -1.060718    0.900743
H       0.457641   -1.141941    2.008293
H      -1.785103   -1.005494   -0.753128
H      -2.907944   -0.466137    1.296874
