23

C       0.017344    1.574104    0.068834
C       0.010051    0.073008   -0.014360
C      -0.030151   -0.592125   -1.172984
C      -0.035247   -2.105467   -1.236445
C      -1.450621   -2.653838   -0.916853
C      -1.533857   -2.580387    0.638955
C      -0.103826   -2.201141    1.120945
C       0.781715   -2.657475   -0.054146
C       0.056779   -0.678849    1.300840
H       0.905589    1.937223    0.602929
H       0.006179    2.034908   -0.922798
H      -0.851232    1.947037    0.627626
H      -0.088043   -0.043531   -2.110875
H       0.326981   -2.447841   -2.209874
H      -2.239617   -2.078413   -1.407914
H      -1.538819   -3.690083   -1.262210
H      -2.273158   -1.847493    0.975198
H      -1.836626   -3.546267    1.054176
H       0.146209   -2.702622    2.060462
H       0.843442   -3.751033   -0.099885
H       1.798850   -2.256742   -0.010662
H       1.004557   -0.453454    1.814010
H      -0.730271   -0.297914    1.968241
