21

C      -0.579142    1.556581    0.066430
C      -0.046539    0.123592    0.011918
C      -1.198910   -0.861532   -0.253599
C       1.085090   -0.066221   -1.029569
C       1.957407   -1.198518   -0.441808
O       1.463456   -1.462902    0.877310
C       0.699730   -0.338482    1.300671
C       1.555078    0.693120    1.903111
C       2.274666    1.520496    2.397017
H       0.219134    2.274039    0.270855
H      -1.046991    1.825183   -0.886692
H      -1.339351    1.665994    0.847976
H      -1.656334   -0.663104   -1.228417
H      -0.846980   -1.896638   -0.243941
H      -1.981059   -0.762998    0.507176
H       0.690098   -0.314115   -2.018221
H       1.665675    0.855340   -1.125821
H       1.886001   -2.133965   -1.005266
H       3.014579   -0.908280   -0.395932
H      -0.002855   -0.703890    2.058075
H       2.908425    2.246763    2.843149
