18

C       0.075896    1.464410   -0.040987
C       0.070089   -0.023846    0.070294
C      -0.890179   -0.879483    0.839973
C       0.606179   -1.018250    1.080568
C       1.216140   -1.694326   -0.117280
C       2.612709   -2.175334   -0.316316
C       1.429257   -3.129349   -0.460725
O       0.609546   -0.771431   -1.039026
H       1.082344    1.838390   -0.252542
H      -0.585858    1.790633   -0.851530
H      -0.280114    1.918890    0.888025
H      -1.430152   -0.375801    1.636341
H      -1.439385   -1.669056    0.334792
H       1.080007   -0.869058    2.041739
H       3.117382   -1.864557   -1.224625
H       3.255545   -2.274296    0.552703
H       1.266956   -3.880332    0.305392
H       1.165265   -3.439607   -1.465889
