20

C      -0.138025    1.567596    0.630605
C      -0.052273    0.146535    0.045942
C       0.963574   -0.704839    0.814294
C      -1.446601   -0.465283    0.000181
C      -1.745370   -1.864888    0.361270
O      -2.063613   -0.797712    1.259665
C      -2.386257    0.183911   -1.009967
N      -3.682666    0.233034   -0.606375
O      -1.983869    0.586322   -2.085588
H       0.846891    2.043698    0.625715
H      -0.815281    2.197425    0.046772
H      -0.496734    1.539661    1.665014
H       0.260459    0.228508   -1.000445
H       1.160970   -1.659061    0.316810
H       1.915830   -0.171932    0.890596
H       0.613871   -0.910076    1.831888
H      -2.601816   -2.359401   -0.093626
H      -0.944925   -2.521757    0.690332
H      -3.906266    0.021440    0.352224
H      -4.352216    0.698141   -1.196197
