16

C      -0.301809    1.560359    0.388090
C       0.014739    0.265374   -0.333270
O       0.551471    0.204250   -1.415710
N      -0.369501   -0.876399    0.364815
C      -0.177033   -2.159171   -0.106329
N      -0.555679   -3.151405    0.590013
C      -0.353232   -4.500023    0.094363
C       0.296030   -4.639023   -1.220728
N       0.807651   -4.710463   -2.254529
H       0.033914    2.394818   -0.225838
H      -1.378272    1.650567    0.568295
H       0.202268    1.596632    1.359656
H      -0.815549   -0.793236    1.267255
H       0.308123   -2.192103   -1.084226
H       0.241227   -5.059003    0.828150
H      -1.324972   -5.007951    0.049522
