21

C       0.013865    1.472084   -0.108186
C       0.013019   -0.056072   -0.152185
O       0.890314   -0.628865    0.809784
C      -1.383342   -0.604481    0.007144
C      -2.053611   -1.040134    1.274211
C      -1.957840   -1.995742    0.094086
C      -2.894889   -1.543409   -1.026510
C      -4.399430   -1.614653   -0.873348
O      -2.363834   -0.180674   -0.951547
H       1.024896    1.855055   -0.270874
H      -0.650620    1.876180   -0.876592
H      -0.344352    1.829177    0.865401
H       0.400594   -0.385228   -1.124034
H       0.717009   -0.193967    1.651943
H      -1.389567   -1.306836    2.089769
H      -2.998655   -0.593959    1.569913
H      -1.460600   -2.953729    0.160838
H      -2.589003   -1.982051   -1.985511
H      -4.722835   -1.233621    0.098767
H      -4.888294   -1.023058   -1.654040
H      -4.737341   -2.652028   -0.970833
