18

C      -0.005341    1.456232    0.032913
C       0.148531   -0.051791    0.067450
C       0.638490   -0.706737   -1.229451
C       1.386234   -1.970227   -0.769310
O       2.625870   -2.041189   -1.443424
C       1.554234   -1.719814    0.775449
O       1.169929   -0.385984    1.023109
C       0.739193   -2.666981    1.566504
N       0.095309   -3.418387    2.163925
H       0.936976    1.929371   -0.259003
H      -0.778443    1.741353   -0.686777
H      -0.294706    1.835029    1.016590
H      -0.798668   -0.515485    0.387354
H      -0.170038   -0.927868   -1.928759
H       1.364721   -0.057970   -1.728357
H       0.797248   -2.878870   -0.939171
H       2.997289   -2.919854   -1.314761
H       2.604043   -1.834064    1.061287
