16

O      -0.048227    1.269909   -0.255074
C       0.947503    2.175010    0.011726
C       2.216606    2.169769   -0.397987
C       2.970324    1.133229   -1.090921
C       3.346204   -0.057985   -0.587476
N       3.174742   -0.531119    0.691842
C       2.062879   -0.791283    1.264261
C       0.712651   -0.872036    0.709907
C      -0.092990   -0.044404    0.028741
H       0.520017    3.054012    0.483589
H       2.740073    3.107792   -0.211899
H       3.417456    1.421805   -2.039747
H       4.027501   -0.670499   -1.176351
H       2.146210   -1.161817    2.291108
H       0.238038   -1.830397    0.918204
H      -1.053107   -0.421177   -0.311930
