17

O       0.067929    1.381978   -0.062510
C       0.044473    0.002791   -0.009231
C       0.323218   -0.827290   -1.279019
N      -0.413601   -1.952569   -0.574426
C       0.528735   -2.191496    0.573155
C       0.890754   -0.747001    1.037435
C      -1.287872   -0.849244    0.001256
C      -1.992388   -1.106515    1.244807
N      -2.527986   -1.272040    2.256596
H       0.072482    1.734669    0.834080
H      -0.235070   -0.492896   -2.155313
H       1.359562   -1.051925   -1.540430
H       0.028199   -2.781589    1.342307
H       1.387858   -2.755146    0.205183
H       1.951480   -0.503581    0.937892
H       0.575163   -0.532712    2.062825
H      -1.989988   -0.506822   -0.761626
