17

C       0.465600    1.340376   -0.303629
C      -0.091664   -0.008060    0.163550
O      -0.101051   -0.940120   -0.925852
C       0.959611   -1.762333   -1.136771
O       0.994374   -2.438763   -2.126549
C       2.037577   -1.779423   -0.062663
N       1.653098   -1.358581    1.270410
C       0.668506   -0.556179    1.357808
N       0.198775   -0.149469    2.586557
H       1.524635    1.256387   -0.564064
H      -0.085137    1.681786   -1.183473
H       0.367627    2.093883    0.484172
H      -1.147707    0.107260    0.429354
H       2.423064   -2.802452   -0.030725
H       2.873285   -1.164565   -0.431540
H       0.827946   -0.317495    3.357958
H      -0.320994    0.711485    2.639065
