16

O      -0.119946    0.032443    0.129731
C       0.021646    1.216851   -0.060862
C       1.313038    1.927668   -0.030832
C       1.295388    3.420591    0.251061
C       1.621443    2.969796   -1.138536
C       3.065175    2.756858   -1.447981
C       3.608951    1.804746   -0.686581
C       2.600138    1.151659    0.232367
H      -0.853401    1.871105   -0.286978
H       0.320238    3.867588    0.421701
H       2.095586    3.818852    0.865853
H       0.909973    3.169152   -1.933201
H       3.585788    3.344487   -2.195144
H       4.654218    1.517724   -0.697006
H       2.904926    1.198705    1.285196
H       2.450109    0.090185    0.001594
