18

C       0.092925    1.510244   -0.127338
C       0.036688   -0.031452   -0.154808
C       0.696259   -0.552807   -1.358193
N       1.226111   -0.966780   -2.298410
C       0.694517   -0.636316    1.093217
C      -0.019370   -0.695661    2.476438
C      -0.934595   -1.843464    1.984896
C       0.518597   -2.118315    1.528346
O       0.975415   -1.713415    2.880330
H       1.127765    1.859747   -0.078744
H      -0.370778    1.935589   -1.020398
H      -0.439388    1.883310    0.751936
H      -1.013157   -0.337749   -0.214794
H       1.733253   -0.309533    1.184117
H      -0.228384    0.108394    3.182512
H      -1.291607   -2.503757    2.775142
H      -1.702464   -1.638829    1.236125
H       0.956344   -3.017183    1.095570
