16

N       0.109015    0.965956   -0.999012
C      -0.052674   -0.156258   -0.172367
C      -0.836749   -0.432910    0.921099
N      -0.516770   -1.667635    1.447174
C       0.431290   -2.141376    0.674892
N       0.753052   -1.263275   -0.327527
C       1.089879   -3.453373    0.793839
C       1.212775   -4.381899   -0.346002
O       2.325015   -3.588221    0.072750
H      -0.197036    0.799525   -1.953179
H      -0.409391    1.756165   -0.636299
H      -1.603783    0.188427    1.358451
H       1.553738   -1.344397   -0.933235
H       1.081236   -3.870032    1.798707
H       1.305904   -5.450963   -0.160664
H       0.774889   -4.107524   -1.304319
