20

C       0.298124   -2.879403    0.341713
C      -0.064370   -1.510156    0.929672
C      -1.499835   -1.131646    0.618553
C      -2.613364   -1.456672    1.557676
N      -2.234251   -0.069761    1.305147
C      -1.611351    0.677488    2.393034
C      -2.677138    1.425823    3.191029
H       1.342995   -3.133125    0.544412
H      -0.330560   -3.668827    0.766488
H       0.156849   -2.892746   -0.744555
H       0.104690   -1.522052    2.010939
H       0.609031   -0.746868    0.517548
H      -1.724985   -1.163164   -0.448671
H      -3.590531   -1.765292    1.194403
H      -2.330568   -1.891952    2.517304
H      -1.027167    0.039659    3.077311
H      -0.909571    1.393418    1.947851
H      -2.218818    2.022050    3.986360
H      -3.248216    2.091365    2.537858
H      -3.379404    0.725202    3.654823
