19

C      -0.017466    1.593461    0.023590
C       0.017736    0.062089    0.074253
C       0.707713   -0.600395   -1.171131
C       1.540836   -1.835127   -0.679691
C       1.683640   -1.545829    0.787449
C       0.861823   -0.534766    1.150450
O       0.918158   -0.288097    2.480651
C       1.826784   -1.187449    2.977088
C       2.325017   -1.986702    1.990645
H       0.994207    2.003083   -0.065863
H      -0.603456    1.940628   -0.833715
H      -0.469882    2.006823    0.930314
H      -1.017841   -0.300210    0.162032
H      -0.018135   -0.869904   -1.942725
H       1.389244    0.134038   -1.613332
H       1.002994   -2.776101   -0.854803
H       2.491723   -1.916067   -1.217124
H       2.011623   -1.119520    4.036599
H       3.054061   -2.771271    2.123587
