21

C      -0.101031    1.524550    0.158120
C       0.015858    0.007400   -0.021870
C       0.749546   -0.472756   -1.312528
C       0.011164    0.003068   -2.586503
C       2.214279    0.025514   -1.342491
C       0.754059   -1.937824   -1.294142
C       0.751476   -3.148729   -1.267815
C       0.750497   -4.509541   -1.241645
C       0.748894   -5.717111   -1.217270
H       0.877831    2.009648    0.215827
H      -0.662640    1.994280   -0.654760
H      -0.629928    1.746764    1.090051
H       0.539430   -0.421187    0.840217
H      -0.986100   -0.436546   -0.021290
H       0.035215    1.094010   -2.660658
H       0.487349   -0.407393   -3.481006
H      -1.033136   -0.321892   -2.578782
H       2.751896   -0.283207   -0.441445
H       2.740674   -0.384539   -2.208590
H       2.248485    1.116553   -1.411031
H       0.748077   -6.778363   -1.196745
