16

O       0.125926    1.381777   -0.077771
C       0.035356   -0.002487   -0.029063
C       0.209225   -0.793353   -1.350667
O      -1.006999   -1.532832   -1.100169
C      -1.336619   -0.720522    0.043184
C      -1.306458   -1.518881    1.338282
O       0.082287   -1.570226    1.747792
C       0.792516   -0.585607    1.147633
N       1.922502   -0.145272    1.499304
H       0.934406    1.612704    0.403806
H       0.122512   -0.137755   -2.225004
H       1.083797   -1.444373   -1.448739
H      -2.243075   -0.126728   -0.101445
H      -1.883279   -1.034654    2.134362
H      -1.655527   -2.543590    1.198110
H       2.268096   -0.602815    2.342935
