19

N       1.112454   -0.381350   -0.503052
C       0.069886    0.286708   -0.218914
N      -1.123943   -0.365980    0.044915
C      -2.304600    0.282936    0.365208
O      -2.375449    1.494804    0.435317
C      -3.490581   -0.616863    0.628282
C      -4.225809   -0.406403    1.990125
C      -5.580510   -0.515612    1.244045
C      -4.824882   -0.227280   -0.078761
H       1.898078    0.245251   -0.668107
H      -0.031946    1.371053   -0.147090
H      -1.097631   -1.374339   -0.004619
H      -3.244157   -1.670672    0.467797
H      -4.012071   -1.122363    2.786555
H      -4.044452    0.607505    2.354174
H      -5.980516   -1.533201    1.272463
H      -6.373014    0.177383    1.533927
H      -4.815059    0.838864   -0.316227
H      -5.100967   -0.796329   -0.969026
