12

O      -0.045937   -0.056814    0.003824
C       0.007585    1.138661    0.009318
O      -1.182693    1.874227    0.028888
C      -1.160078    3.213755    0.035485
C      -0.002350    3.923640    0.023774
N       1.221825    3.264199    0.004123
C       1.213632    1.976596   -0.002404
C      -0.010946    5.345442    0.031220
C      -0.027858    6.548249    0.037657
H      -2.149465    3.653787    0.050886
H       2.158185    1.438307   -0.017740
H      -0.035639    7.610369    0.043265
