20

C       0.204499    1.571828    0.158062
C       0.082378    0.052160   -0.017277
N       0.653731   -0.742101    1.070600
C      -0.067712   -0.766401    2.327919
C       2.025580   -0.820403    1.175703
C       2.872128   -1.032697    2.230813
C       4.191165   -1.095235    1.663708
C       4.055521   -0.905207    0.331610
O       2.726308   -0.735423    0.015031
H       1.254985    1.871225    0.216325
H      -0.249813    2.089018   -0.693313
H      -0.300734    1.914630    1.066592
H      -0.971797   -0.234127   -0.100541
H       0.570539   -0.253569   -0.945331
H       0.225298   -1.650985    2.901971
H       0.112098    0.120436    2.956837
H      -1.138982   -0.833421    2.121967
H       2.603439   -1.121515    3.269567
H       5.117056   -1.253883    2.194795
H       4.736967   -0.849819   -0.499395
