23

C      -0.232168    1.523230    0.020015
C       0.029419    0.023909   -0.054280
C       1.210473   -0.522404   -0.929146
C       1.766148   -1.263743    0.298346
C       2.376534   -2.636747    0.260988
C       2.073202   -0.251000    1.367797
C       0.635978   -0.688967    1.166829
C      -0.170877   -1.296889    2.273467
O      -0.787232   -0.310294    3.099215
H       0.674672    2.081987    0.275286
H      -0.597708    1.909296   -0.937972
H      -0.985323    1.739303    0.784797
H      -0.897573   -0.486627   -0.338323
H       0.873130   -1.190500   -1.725980
H       1.878240    0.228543   -1.366598
H       3.358421   -2.616821   -0.228053
H       2.520668   -3.040686    1.268370
H       1.746701   -3.340469   -0.295559
H       2.551226   -0.652705    2.257769
H       2.402855    0.752313    1.107521
H      -1.000981   -1.887018    1.867772
H       0.455025   -1.981007    2.870171
H      -0.088518    0.281879    3.397639
