19

C       0.024298    1.468053   -0.028892
C      -0.007305   -0.038469    0.030285
C      -0.362803   -0.790739   -1.271588
C      -0.086287   -2.288166   -1.190205
C      -0.749181   -2.281709    0.226772
C       0.320236   -2.107363    1.305737
C       0.918453   -0.729457    0.990414
O       1.915732   -0.251538    1.474829
C      -1.283822   -0.843150   -0.080544
H       1.028657    1.814833   -0.289309
H      -0.679047    1.853600   -0.773055
H      -0.232019    1.906125    0.941002
H      -0.453724   -0.200024   -2.176264
H      -0.694069   -2.834685   -1.916125
H       0.950638   -2.636693   -1.256665
H      -1.480186   -3.064134    0.423000
H      -0.123448   -2.058338    2.308551
H       1.088455   -2.885337    1.318564
H      -2.277593   -0.442297    0.071782
