23

C      -0.125863    1.589186    0.000141
C      -0.033546    0.089613   -0.052564
C       0.598681   -0.673093   -1.223315
C      -0.424153   -1.841974   -1.006310
C       0.142781   -3.151797   -0.448412
C       1.182406   -2.887577    0.652608
C       0.686055   -1.890671    1.718656
C      -0.194696   -0.764981    1.191232
C      -1.142612   -0.968752    0.044149
H       0.851222    2.042256    0.211061
H      -0.477960    1.999105   -0.954235
H      -0.816921    1.921890    0.781963
H       0.400918   -0.156204   -2.167462
H       1.669205   -0.895747   -1.179326
H      -1.030541   -2.029440   -1.895206
H      -0.686215   -3.753711   -0.051285
H       0.602706   -3.743013   -1.249654
H       1.464381   -3.827950    1.138507
H       2.098625   -2.505091    0.190557
H       0.085979   -2.436239    2.460388
H       1.542375   -1.480250    2.268340
H      -0.634543   -0.176519    1.995408
H      -2.216117   -0.838639    0.127937
