23

C      -0.098591    1.552005    0.013177
C      -0.030343    0.023908   -0.041371
C       0.749335   -0.496446   -1.254216
C       0.819873   -2.017657   -1.323341
O      -0.509477   -2.537958   -1.440294
C      -0.438089   -3.838229   -2.015476
C       0.756335   -3.803355   -2.953428
C       0.855229   -2.586465   -3.836749
C       1.569999   -2.612573   -2.508089
H       0.902915    1.994789    0.063688
H      -0.592587    1.958128   -0.876712
H      -0.658162    1.895638    0.888927
H       0.436598   -0.356122    0.877358
H      -1.041557   -0.395777   -0.066407
H       0.294565   -0.122826   -2.179855
H       1.776756   -0.108789   -1.229121
H       1.284840   -2.397650   -0.394946
H      -0.288330   -4.609041   -1.241337
H      -1.397733   -4.028295   -2.508401
H       1.217148   -4.736638   -3.254518
H       1.465224   -2.665715   -4.729521
H      -0.022946   -1.957246   -3.941202
H       2.652911   -2.637535   -2.476852
