18

C      -0.392660    1.471960    0.344646
C       0.392588    0.202149   -0.009639
C       0.806783   -0.555906    1.229088
O      -0.179032   -1.323672    1.912013
C       0.923813   -2.035854    1.313435
C       0.637101   -2.982841    0.177173
C       1.891391   -2.527369    2.351335
O       2.599022   -3.492541    2.218258
H       0.203588    2.148046    0.966782
H      -0.681426    2.016085   -0.558986
H      -1.302434    1.220788    0.897747
H      -0.212737   -0.438241   -0.656066
H       1.298204    0.464271   -0.571262
H       1.442732    0.022820    1.906434
H      -0.091705   -2.568779   -0.519596
H       1.561720   -3.211599   -0.359648
H       0.244992   -3.925877    0.568897
H       1.891835   -1.910055    3.277575
