13

N      -0.056578    1.157592   -0.643913
C       0.022261    0.081411    0.010078
C      -1.215079   -0.649734    0.464948
O      -1.088815   -2.073568    0.318206
C       0.039961   -2.638517    0.798952
O       0.159173   -3.826684    0.882547
C       1.121117   -1.649063    1.214586
O       1.198490   -0.506802    0.356981
H       0.873505    1.536112   -0.833118
H      -1.435132   -0.410363    1.514069
H      -2.061230   -0.342977   -0.145671
H       0.946106   -1.336787    2.254041
H       2.087056   -2.149118    1.163533
