14

C      -0.028683    1.492220    0.089498
C       0.001958    0.009873   -0.087158
C      -0.027393   -0.786225   -1.213479
C       0.030094   -2.097138   -0.702762
N       0.090544   -2.148378    0.619016
N       0.071947   -0.856691    0.966735
N       0.027306   -3.318695   -1.485482
O      -0.031816   -3.169957   -2.703189
O       0.081843   -4.386682   -0.898916
H       0.873980    1.857634    0.591404
H      -0.092154    1.980871   -0.884197
H      -0.893006    1.810182    0.682820
H      -0.081524   -0.484931   -2.244455
H       0.109484   -0.624264    1.946710
