17

C       0.016992   -1.146603   -0.106861
C       0.017807    0.054127   -0.053741
C       0.048332    1.486458    0.057113
C      -0.398806    2.269552    1.323183
C       0.395783    3.400812    0.662398
C      -0.061643    3.443240   -0.857798
C       1.388951    3.127441   -1.285410
C       1.393216    2.358976    0.040634
O      -0.700830    2.162937   -0.976533
H       0.009146   -2.207086   -0.162065
H      -1.476645    2.363020    1.472893
H       0.097740    1.911719    2.228308
H       0.703727    4.321244    1.153139
H      -0.677363    4.225950   -1.297048
H       1.521928    2.595002   -2.229918
H       2.046419    3.999721   -1.229470
H       2.268399    1.958019    0.546856
