21

C       0.956662    0.970767   -0.196791
C       0.390516   -0.412219    0.134144
N       0.767659   -1.426612   -0.838047
C      -0.115648   -1.935546   -1.743623
O      -1.288157   -1.607683   -1.796431
C       0.458645   -2.958398   -2.735711
C       1.786493   -3.572023   -2.366309
C       2.784132   -3.957288   -3.389878
N       3.036504   -2.788860   -2.522205
H       2.051416    0.955498   -0.234241
H       0.586241    1.317118   -1.166006
H       0.657710    1.697781    0.565074
H       0.726342   -0.729895    1.128646
H      -0.701011   -0.387596    0.139897
H       1.731488   -1.721306   -0.878562
H      -0.309435   -3.729316   -2.854349
H       0.534402   -2.453885   -3.708274
H       1.777246   -4.151061   -1.444525
H       3.440048   -4.805549   -3.218543
H       2.539063   -3.777034   -4.433226
H       2.833347   -1.942601   -3.051787
