23

C      -0.574143    1.291048    0.251575
C       0.018745   -0.073676    0.016979
O      -0.193825   -1.024870    1.080947
C       1.151829   -0.616524    0.779792
C       1.906227   -1.627113   -0.055774
C       0.892619   -1.996340   -1.162526
C      -0.020871   -0.748097   -1.366760
C      -1.446105   -1.157850   -1.760566
C       0.580259    0.191012   -2.428060
H      -0.072395    2.056232   -0.348213
H      -1.638946    1.307340   -0.005069
H      -0.479540    1.560467    1.306294
H       1.650457   -0.052451    1.565661
H       2.808475   -1.155290   -0.464062
H       2.229541   -2.498370    0.522781
H       1.379823   -2.295763   -2.094733
H       0.283432   -2.838372   -0.826939
H      -1.903622   -1.759875   -0.969917
H      -2.083732   -0.284728   -1.938553
H      -1.439387   -1.751610   -2.681197
H       0.627620   -0.315466   -3.397867
H      -0.023345    1.094719   -2.558807
H       1.596971    0.502956   -2.164641
