20

O      -0.173702    1.343538   -0.503944
N       0.003375   -0.044512   -0.344589
C      -1.046190   -0.599551    0.121665
C      -2.322355    0.148200    0.460131
C      -3.396651   -0.798577    0.998601
C      -2.787974   -1.732173    2.082926
C      -2.314838   -2.629140    0.903900
C      -3.505830   -2.053120    0.086439
C      -0.988362   -2.106871    0.342977
H       0.680940    1.615073   -0.854583
H      -2.087061    0.935494    1.187561
H      -2.671306    0.674087   -0.437662
H      -4.313743   -0.256630    1.241225
H      -2.026386   -1.316030    2.750774
H      -3.561785   -2.221460    2.679942
H      -2.273312   -3.709218    1.062593
H      -4.429134   -2.609241    0.267688
H      -3.372125   -1.917700   -0.991986
H      -0.754220   -2.604723   -0.605342
H      -0.166352   -2.342162    1.029209
