21

C      -0.012764    1.512816   -0.039535
C      -0.027495   -0.002222    0.053687
C      -1.301841   -0.648728   -0.457096
C       1.288709   -0.742964   -0.173141
C       0.680543   -0.651351    1.204401
C       1.354814    0.068328    2.379099
O       1.284902   -0.871413    3.449383
C       0.934326   -2.106297    2.868166
O       0.106613   -1.810286    1.770709
H       0.927307    1.940241    0.322670
H      -0.139365    1.832144   -1.080355
H      -0.828969    1.954589    0.543838
H      -1.443135   -0.426660   -1.521001
H      -1.281002   -1.732409   -0.328552
H      -2.175870   -0.267080    0.082792
H       1.242051   -1.707892   -0.667037
H       2.180967   -0.160651   -0.386486
H       2.397478    0.327363    2.151939
H       0.826728    0.976006    2.689685
H       1.837087   -2.652169    2.537055
H       0.372439   -2.701617    3.592788
