18

C      -0.051898    1.590364    0.027266
C       0.040277    0.093932    0.045433
C       0.672544   -0.785844   -1.025157
O       1.135724   -1.743782   -0.032829
C       0.637254   -0.912081    1.024519
C       1.414088   -0.824069    2.294626
C      -0.861736   -0.802156    0.876682
O      -1.557819   -0.104217    1.869826
H       0.927570    2.049292   -0.146932
H      -0.726425    1.932297   -0.767284
H      -0.445919    1.961699    0.975638
H       0.009605   -1.245567   -1.768872
H       1.523314   -0.313982   -1.532647
H       2.417158   -0.420885    2.124385
H       0.894157   -0.176182    3.005581
H       1.522992   -1.817682    2.745813
H      -1.407163   -1.621531    0.400249
H      -1.662297   -0.690185    2.626828
