15

O       0.011709    1.451092    0.008340
C       0.038884    0.035391    0.001382
C      -1.378260   -0.470509    0.012041
C      -2.457443    0.360745    0.023140
N      -3.701756   -0.168833    0.032125
C      -3.986247   -1.557429    0.030787
O      -5.138279   -1.930328    0.039256
N      -2.874505   -2.390932    0.019588
C      -1.682938   -1.862425    0.011109
H       0.917056    1.773253    0.000929
H       0.563367   -0.348566   -0.889658
H       0.579614   -0.357095    0.878876
H      -2.368819    1.439360    0.025275
H      -4.517302    0.427404    0.040518
H      -0.851211   -2.571861    0.002600
