22

C       0.009651    1.586329   -0.020195
C      -0.002769    0.055388    0.004028
C       0.702912   -0.529809   -1.235749
C       0.951481   -2.028583   -1.138881
N       2.127177   -2.458156   -0.350552
C       0.769388   -2.759812    0.143884
C       0.401969   -2.022084    1.416237
O       1.106108   -2.569305    2.524749
C       0.623516   -0.508552    1.288317
H       1.034879    1.970001    0.039917
H      -0.436689    1.974497   -0.942343
H      -0.550862    2.000759    0.824200
H      -1.052196   -0.275468   -0.025237
H       0.102683   -0.320303   -2.128573
H       1.666517   -0.024807   -1.379337
H       0.754545   -2.595128   -2.046499
H       2.541644   -3.288149   -0.765106
H       0.439115   -3.795666    0.105130
H      -0.657766   -2.209949    1.630491
H       2.040847   -2.527273    2.287512
H       1.702457   -0.308005    1.288172
H       0.204823   -0.019691    2.174384
