10

C       0.168793    1.525130   -0.157471
C      -0.187376    0.061948    0.146794
C       0.509176   -0.439962    1.391258
O       1.181911   -1.435656    1.458164
H       1.231265    1.631373   -0.396327
H      -0.407447    1.894317   -1.009692
H      -0.049310    2.172663    0.698574
H      -1.269052   -0.016681    0.328544
H       0.062791   -0.602505   -0.684740
H       0.353848    0.206634    2.288711
