17

C      -0.047466    1.449591    0.149566
N      -0.007685   -0.010307    0.038333
C      -1.221913   -0.697658   -0.006012
N      -2.308085   -0.034095    0.045700
C      -1.114479   -2.204633   -0.167892
O       0.037043   -2.736237    0.443518
C       1.201883   -2.165176   -0.105474
C       1.225139   -0.641098   -0.068369
O       2.272475   -0.034707   -0.139329
H       0.980598    1.802890    0.178874
H      -0.575876    1.875176   -0.706341
H      -0.586127    1.735257    1.055048
H      -3.112022   -0.659987    0.015305
H      -1.979214   -2.676390    0.303740
H      -1.135452   -2.448901   -1.245008
H       2.054589   -2.519057    0.475894
H       1.349543   -2.480902   -1.152887
