19

C      -0.106210    1.506841   -0.002013
C       0.076436    0.016906    0.006274
C       1.007775   -0.778589   -0.942393
C       0.720511   -1.903524    0.075850
C       0.676996   -0.818640    1.198627
C      -0.348978   -1.305497    2.220777
O      -1.146153   -2.249367    1.478170
C      -0.823219   -2.007559    0.131988
O      -1.189289   -0.663226   -0.208409
H       0.854152    2.014029    0.127824
H      -0.544293    1.830696   -0.951276
H      -0.777732    1.819082    0.803974
H       0.668001   -0.899545   -1.973759
H       2.048301   -0.445423   -0.909697
H       1.286473   -2.829749    0.153677
H       1.632645   -0.464595    1.582673
H       0.106608   -1.821806    3.072613
H      -0.984286   -0.495762    2.600680
H      -1.351733   -2.727358   -0.491532
