12

C       0.064250   -3.747423   -0.018808
C       0.039756   -2.539845   -0.011763
C       0.014331   -1.182416   -0.003870
C      -0.012542    0.028839    0.003217
C       0.001379    1.441261    0.010893
N      -1.126022    2.137747    0.029135
O      -0.739284    3.462694    0.031587
C       0.601168    3.539956    0.014938
C       1.145592    2.300635    0.001101
H       0.081617   -4.809163   -0.024954
H       1.014666    4.536331    0.015220
H       2.183702    2.017684   -0.013699
