17

C       0.141679    1.544755    0.082009
C       0.072522    0.033952   -0.021481
C       0.791199   -0.584439   -1.268306
C       1.439666   -1.788102   -0.655945
C       2.126105   -2.934274   -0.879453
O       2.449187   -3.517765    0.309777
C       1.962263   -2.722794    1.326881
C       1.344120   -1.659953    0.757722
O       0.695569   -0.543734    1.168301
H       1.182725    1.881867    0.086892
H      -0.369902    2.005283   -0.769188
H      -0.339158    1.891772    1.000525
H      -0.974069   -0.298485   -0.013551
H       0.073150   -0.803707   -2.063150
H       1.530095    0.116860   -1.675843
H       2.452909   -3.464237   -1.758604
H       2.144630   -3.065647    2.328852
