20

C      -0.087199    1.562963    0.067413
C       0.015918    0.040569    0.013121
C      -1.349613   -0.586395   -0.269872
C       1.132367   -0.569039   -0.914081
C       1.757018   -1.281266    0.288598
C       2.178734   -0.289738    1.321592
C       0.709155   -0.645425    1.228779
C       0.016660   -1.231065    2.329330
N      -0.566424   -1.698732    3.214362
H       0.875975    2.039172    0.271505
H      -0.452013    1.954154   -0.888852
H      -0.789924    1.878071    0.846356
H      -1.734861   -0.235325   -1.233075
H      -1.289121   -1.678611   -0.304367
H      -2.074965   -0.317764    0.505072
H       0.719938   -1.247864   -1.662804
H       1.789064    0.149487   -1.414468
H       2.105388   -2.306036    0.306667
H       2.684909   -0.695592    2.190675
H       2.509740    0.703779    1.032920
