20

O      -0.075467    1.470183   -0.320656
C       0.039697    0.103642    0.043775
C      -1.364218   -0.482358    0.030008
C      -1.946196   -0.645125   -1.404225
C      -1.581449   -2.154514   -1.359541
C      -1.455920   -2.035114    0.182763
C      -0.339275   -2.799588    0.910049
C      -0.541703   -4.246555    0.849667
N      -0.720348   -5.386766    0.789033
H       0.806378    1.852762   -0.346731
H       0.690055   -0.438202   -0.663142
H       0.485510   -0.003202    1.046521
H      -1.975901    0.092064    0.731257
H      -3.026149   -0.481583   -1.430391
H      -1.482947   -0.032802   -2.179982
H      -2.308850   -2.870629   -1.745971
H      -0.615697   -2.359533   -1.832089
H      -2.409960   -2.292212    0.652404
H       0.638753   -2.573565    0.470596
H      -0.290555   -2.501669    1.964333
