17

O       0.011262   -0.006463   -0.252042
C       0.031637    1.187790   -0.131183
C      -1.137291    2.184779   -0.084560
C      -0.303230    3.473332    0.118538
C       0.774963    3.306924   -1.006208
C       1.223923    2.112305    0.016083
C       0.758638    3.162223    1.112727
C      -0.320590    3.659033    2.132555
O      -0.938662    4.429970    1.021237
H      -1.707359    2.188042   -1.018173
H      -1.826349    1.959159    0.732056
H       0.464485    3.011430   -2.013058
H       1.530989    4.091269   -1.038903
H       2.221468    1.678233   -0.013069
H       1.502196    3.962368    1.088980
H      -1.022096    2.924160    2.535557
H       0.038689    4.321264    2.922405
