16

O       0.041513    1.463366    0.054680
C       0.015692    0.065089   -0.036889
C      -1.389329   -0.555008   -0.035039
C      -2.411397    0.176203   -0.920298
C      -1.771322   -0.542743   -2.132984
N      -0.999594   -1.492669   -1.191835
C       0.260710   -0.633996   -1.407618
C      -0.443680    0.082486   -2.555888
O      -0.075769    0.730759   -3.491305
H       0.954316    1.767314    0.014407
H       0.643799   -0.408700    0.729269
H      -1.740218   -0.993708    0.899785
H      -3.424260   -0.190337   -0.742548
H      -2.409949    1.267354   -0.909129
H      -2.415509   -0.956480   -2.910716
H       1.223737   -1.110773   -1.598315
