14

N      -0.366690   -1.207336   -0.293818
C      -0.139736   -0.091538   -0.086922
C       0.029115    1.328781    0.089845
C       0.530633    2.090460    1.268461
C       1.738407    1.540448    2.042632
C       2.261912    0.244010    1.490149
C       2.462074    1.511670    0.713572
N       1.281011    2.125224   -0.029278
H      -0.758976    1.859563   -0.443058
H      -0.020781    2.961698    1.609688
H       2.049812    1.958706    2.989397
H       3.179286   -0.078344    1.975294
H       1.628980   -0.574286    1.180354
H       3.432988    1.889456    0.423659
