22

C       0.060137    1.572038    0.068942
C       0.008868    0.042575    0.000582
C       0.591973   -0.473748   -1.326290
C       0.234597   -1.930927   -1.620408
C       0.796664   -2.910837   -0.599269
O       0.267114   -2.766480    0.723278
C       0.713366   -1.707266    1.484825
C       1.238635   -2.188972    2.807940
N       0.665914   -0.477923    1.200200
H       1.094736    1.924006   -0.004311
H      -0.518438    2.023526   -0.743658
H      -0.342896    1.922152    1.022620
H      -1.047971   -0.268831    0.035238
H       0.215356    0.158181   -2.138933
H       1.682616   -0.345647   -1.308212
H      -0.855947   -2.046950   -1.660030
H       0.620198   -2.222434   -2.605701
H       0.553241   -3.938710   -0.882956
H       1.891770   -2.822680   -0.556379
H       0.475038   -2.795206    3.307176
H       2.109877   -2.837075    2.661285
H       1.508567   -1.343234    3.439202
