25

C       0.007809    1.631967   -0.008448
C      -0.037941    0.099676   -0.006975
C       0.750858   -0.532714   -1.156630
C       2.277130   -0.260146   -1.144054
C       2.859720   -1.465693   -1.853830
C       4.283559   -1.498192   -2.311806
C       1.950185   -2.436961   -1.957860
C       0.630575   -2.085446   -1.308121
C       0.433329   -2.869624    0.003433
H       1.031219    2.003501    0.108368
H      -0.385171    2.038193   -0.947604
H      -0.589910    2.047291    0.809059
H       0.341893   -0.273208    0.952504
H      -1.084686   -0.226282   -0.067489
H       0.367000   -0.108292   -2.094164
H       2.538368    0.684944   -1.635345
H       2.673567   -0.187159   -0.118812
H       4.973434   -1.340288   -1.472319
H       4.536244   -2.452488   -2.782467
H       4.488455   -0.696800   -3.033511
H       2.138282   -3.413278   -2.395531
H      -0.216798   -2.327442   -1.963620
H       1.236489   -2.661678    0.718237
H      -0.521319   -2.628846    0.481806
H       0.442283   -3.946918   -0.193925
