19

O      -0.716128    1.078992    0.290474
C      -0.315399   -0.250802   -0.046146
C       0.683343   -0.282806   -1.180125
C       0.653645   -1.405174   -2.189415
C       0.228456   -0.017821   -2.593340
C       0.203243   -0.992533    1.179886
C       0.989822   -0.288774    2.220973
N      -0.391440   -0.730982    2.493965
H       0.036653    1.661168    0.147739
H      -1.238438   -0.746685   -0.378006
H       1.670848    0.084355   -0.905874
H       1.599454   -1.786288   -2.557204
H      -0.117164   -2.161394   -2.082860
H      -0.829188    0.164978   -2.750336
H       0.880777    0.551961   -3.245416
H       0.419238   -2.042411    0.990409
H       1.763700   -0.816167    2.771200
H       1.165501    0.777049    2.100265
H      -0.999170    0.081628    2.394853
