21

C      -0.247972    1.452592    0.167235
C       0.228706    0.009809   -0.037279
C       0.897684   -0.565217    1.195203
C       0.033327   -1.202576    2.258021
C       0.929930   -2.062265    1.379931
C       1.858994   -2.605712    2.489565
C       0.854353   -3.051204    3.587472
C       0.708611   -1.504828    3.615049
O       2.133133   -1.423984    3.302768
H       0.589492    2.110176    0.424126
H      -0.718013    1.848307   -0.738535
H      -0.977437    1.514418    0.981480
H      -0.621804   -0.621893   -0.324928
H       0.933343   -0.027591   -0.878231
H       1.765436   -0.015749    1.546007
H      -1.047678   -1.198467    2.178378
H       0.549322   -2.729768    0.615631
H       2.749136   -3.172085    2.216018
H      -0.008101   -3.658349    3.299324
H       1.352466   -3.440517    4.477326
H       0.415768   -0.939256    4.499550
