17

C       0.280915    0.861063   -0.182187
C      -0.663415    0.012666    0.636913
O      -0.482753   -0.255087    1.801133
C      -1.870215   -0.566326   -0.121429
C      -1.475433   -1.970818   -0.595776
O      -0.964128   -2.154033   -1.669603
C      -1.734351   -3.074937    0.434996
C      -1.201083   -4.377734    0.081512
C      -0.761529   -5.457047   -0.206339
H       1.168104    1.112114    0.399644
H       0.558226    0.321670   -1.095050
H      -0.226240    1.779718   -0.499637
H      -2.715503   -0.609493    0.568807
H      -2.113642    0.034048   -0.999258
H      -1.332271   -2.717726    1.393794
H      -2.822579   -3.125291    0.585773
H      -0.369271   -6.409395   -0.464378
