23

C      -0.083637    1.583665   -0.168445
C       0.061776    0.089690    0.026689
O       0.953918   -0.521824   -0.936066
C       1.392155   -1.472527    0.065676
C       2.867296   -1.828524   -0.008625
C       3.783705   -0.746555    0.574667
C       3.300774   -0.338977    1.972107
C       1.920297    0.329314    1.886311
C       0.858786   -0.553021    1.199243
H       0.883079    2.092563   -0.170679
H      -0.566350    1.780708   -1.131091
H      -0.709407    2.016675    0.619374
H      -0.934120   -0.378761   -0.043464
H       0.786419   -2.389080   -0.015949
H       3.015237   -2.761480    0.551969
H       3.117561   -2.046789   -1.053551
H       4.814188   -1.115625    0.610511
H       3.783728    0.133564   -0.080622
H       3.257430   -1.227090    2.618435
H       4.010695    0.352175    2.439609
H       1.569129    0.612339    2.884325
H       2.047023    1.265863    1.333908
H       0.243922   -1.063754    1.944785
