18

N      -0.473092   -0.955090   -0.886177
C      -0.247538    0.087715   -0.442520
C       0.004948    1.398635    0.170335
C      -0.558510    1.421947    1.638275
N       0.175936    2.344835    2.513380
C       1.559152    2.562619    2.079090
C       1.610126    3.130061    0.638191
N       1.450841    1.719672    0.118361
C       2.088186    1.271282    1.415812
H      -0.505678    2.147994   -0.445434
H      -1.619620    1.681652    1.634482
H      -0.490494    0.408788    2.046664
H      -0.300692    3.238963    2.561589
H       2.131621    3.047769    2.874780
H       0.827623    3.833465    0.334982
H       2.588866    3.516126    0.336824
H       3.173789    1.273214    1.297796
H       1.769562    0.300649    1.799938
