16

C      -0.067196    1.483846    0.096944
C       0.019843   -0.040235   -0.026228
C       0.739957   -0.458257   -1.295247
O       0.774122   -1.904490   -1.326152
C       1.367259   -2.444643   -2.367523
N       1.927512   -1.828342   -3.374177
O       2.380386   -2.852842   -4.156998
N       2.057176   -4.058377   -3.557953
N       1.448830   -3.820943   -2.484040
H       0.927833    1.940615    0.123604
H      -0.613043    1.922812   -0.744955
H      -0.587992    1.767625    1.015049
H       0.548876   -0.463066    0.834899
H      -0.983214   -0.480774   -0.028661
H       0.225884   -0.101397   -2.195282
H       1.769697   -0.083518   -1.325119
