19

C       0.160415    1.461706    0.066297
N      -0.148761    0.058618   -0.152186
C       0.508919   -0.693359   -1.088790
C       0.653184   -2.034795   -1.159028
C       0.194944   -3.087559   -0.201804
C       1.363485   -2.346295   -2.392722
N       1.693038   -3.495290   -2.818090
O       1.649806   -1.164835   -3.056639
C       1.149241   -0.068877   -2.303396
H       1.160496    1.632769    0.492512
H       0.091668    2.013567   -0.875652
H      -0.580154    1.885874    0.748208
H      -0.426012   -0.449874    0.674357
H      -0.828205   -3.422836   -0.412945
H       0.843778   -3.963221   -0.282890
H       0.218143   -2.735800    0.837183
H       2.195431   -3.419758   -3.702567
H       0.429280    0.497515   -2.910524
H       1.978005    0.606004   -2.048669
