18

C      -0.006794    1.447888    0.013092
N      -0.008599   -0.011012   -0.033495
C      -0.075023   -0.680182   -1.220124
C      -0.077182   -2.038808   -1.267223
C      -0.008169   -2.757530   -0.044059
C       0.059236   -2.118736    1.160212
C       0.133603   -2.826942    2.480878
C       0.061776   -0.663828    1.216239
O       0.119115    0.003089    2.243644
H       0.902866    1.805790    0.500990
H      -0.064817    1.838494   -1.003456
H      -0.855650    1.804691    0.601097
H      -0.125052   -0.060726   -2.107474
H      -0.130529   -2.548049   -2.219803
H      -0.009253   -3.844053   -0.069924
H       0.126481   -3.911981    2.349807
H       1.039856   -2.540280    3.025424
H      -0.706066   -2.540645    3.123518
