19

C       0.115720    1.471898    0.237290
C       0.528239    0.012415    0.171810
O       0.056608   -0.635443    1.350746
C       0.390493   -1.977794    1.418331
C       1.811108   -2.471129    1.601804
O       2.588598   -1.518026    2.319488
C       1.711395   -1.629417    3.474679
C       0.789885   -2.594901    2.726244
O       0.194158   -3.701392    3.293874
H       0.547427    1.951466    1.120336
H       0.464120    2.005314   -0.652153
H      -0.972749    1.564526    0.293354
H       0.098827   -0.472660   -0.719354
H       1.620516   -0.086232    0.113357
H      -0.206456   -2.649513    0.794093
H       2.322796   -3.180975    0.961980
H       2.231486   -2.114515    4.307199
H       1.297713   -0.663300    3.777493
H      -0.741436   -3.510264    3.423710
