19

C      -0.083953    1.572806    0.131570
C       0.018180    0.058981   -0.002766
C       0.722114   -0.590828    1.188439
O      -1.330432   -0.416518   -0.123207
C      -1.515153   -1.656375   -0.638817
C      -2.747002   -2.280065   -0.716166
N      -2.514793   -3.476647   -1.318434
N      -1.230206   -3.679550   -1.632113
C      -0.606072   -2.572802   -1.222660
H       0.912195    2.017499    0.210907
H      -0.591163    2.002549   -0.735966
H      -0.653134    1.836115    1.028607
H       0.557532   -0.182653   -0.929694
H       0.736419   -1.679672    1.096330
H       1.756618   -0.239707    1.256428
H       0.206310   -0.331345    2.118338
H      -3.726441   -1.961429   -0.401623
H      -3.188015   -4.190626   -1.536327
H       0.460124   -2.483288   -1.358215
