17

C      -0.249522    0.626964   -0.763116
O       0.219308    0.911861    0.542258
C       0.788698   -0.136474    1.182059
C       1.040588   -1.442279    0.825174
C       1.678380   -2.044551    1.953499
C       1.785859   -1.094033    2.933657
N       1.230623    0.082466    2.459408
C       1.185336    1.353471    3.149567
H       0.572623    0.307554   -1.416365
H      -1.013952   -0.160355   -0.745017
H      -0.683883    1.551139   -1.147283
H       0.797593   -1.910942   -0.114018
H       2.010188   -3.068701    2.027428
H       2.196410   -1.134991    3.929485
H       1.984065    2.026523    2.816642
H       0.226268    1.844410    2.970018
H       1.297838    1.178423    4.221287
