17

C       0.051108    1.468105   -0.320983
N       0.034025    0.033836   -0.032524
C      -1.045399   -0.505222    0.892389
C      -0.111088   -1.732983    1.089464
C       0.787482   -0.467352    1.189080
C      -0.311848    0.130854    2.091841
C      -0.479581    1.267657    2.983213
O      -0.529175   -0.095312    3.463450
H       1.014908    1.714765   -0.778386
H      -0.727826    1.678643   -1.061189
H      -0.101975    2.137093    0.536910
H      -2.102734   -0.485121    0.626410
H      -0.246481   -2.315784    2.000277
H       0.046351   -2.333197    0.193446
H       1.873033   -0.402968    1.269962
H       0.386921    1.841267    3.309856
H      -1.427200    1.803824    3.016255
