19

C       0.260829    1.371109   -0.001219
O      -0.233666    0.106773   -0.418075
C       0.613484   -0.542524   -1.315432
C       1.842554   -1.268735   -0.724250
N       2.790087   -0.867139    0.010922
N       1.437319   -2.476961   -1.293044
C       0.135537   -1.952151   -1.699897
C      -1.205956   -2.536986   -1.414763
C      -0.700611   -2.407578   -2.847068
H       1.224338    1.272721    0.510753
H       0.380950    2.051505   -0.858573
H      -0.481093    1.788748    0.682932
H       0.862250    0.099688   -2.174041
H       3.407380   -1.633095    0.289515
H       1.615212   -3.398267   -0.915818
H      -1.251776   -3.533022   -0.985475
H      -1.979211   -1.859242   -1.070305
H      -1.149569   -1.656530   -3.489192
H      -0.404963   -3.316748   -3.360777
