22

C       2.518029    1.775553    0.158365
C       1.245272    1.490499   -0.643605
C       1.303650    0.249296   -1.501358
C       2.226796   -0.888076   -1.289477
N       2.442748   -0.000628   -2.456391
C       1.414385   -0.287997   -3.530580
C       0.391203   -1.354867   -3.252590
C       0.242997    0.007861   -2.621749
C      -0.972679    0.869910   -2.816951
H       2.683491    1.025874    0.938319
H       3.392058    1.784139   -0.499836
H       2.451073    2.751357    0.647932
H       0.384552    1.407528    0.034397
H       1.036914    2.348665   -1.294874
H       3.007431   -0.760094   -0.546214
H       1.926052   -1.920311   -1.420712
H       1.646479    0.060060   -4.529939
H      -0.285236   -1.509353   -4.089156
H       0.588344   -2.265943   -2.699593
H      -1.750779    0.641412   -2.078042
H      -0.741521    1.936861   -2.736169
H      -1.405227    0.701182   -3.808271
