21

C      -0.083874    1.587435    0.139368
C      -0.122527    0.070290   -0.043694
O       0.912012   -0.565871    0.704627
C      -1.500907   -0.521649    0.297503
C      -1.581505   -2.015979    0.058956
C      -2.894690   -2.709248   -0.078953
N      -1.984932   -2.623031   -1.214983
C      -2.389482   -1.792567   -2.337337
H       0.917312    1.969639   -0.076760
H      -0.798676    2.087470   -0.522323
H      -0.339608    1.860175    1.171402
H       0.116757   -0.170904   -1.086499
H       0.780679   -0.338992    1.632406
H      -1.705476   -0.324467    1.360953
H      -2.276984    0.011774   -0.260965
H      -0.765813   -2.558929    0.531701
H      -3.056316   -3.700267    0.338551
H      -3.782983   -2.076085   -0.094213
H      -2.998654   -0.913434   -2.071711
H      -1.501133   -1.445320   -2.875773
H      -2.980728   -2.405168   -3.026017
