17

O      -0.020874    0.003781    0.034556
C       0.017452    1.216219    0.057890
N       1.164950    1.941058    0.105585
C       2.480458    1.295413    0.034717
C       3.467278    2.473421   -0.036938
C       2.610898    3.624657   -0.623032
C       1.242091    3.393613    0.057982
C       3.162352    4.954899   -0.397372
N       3.598084    6.008453   -0.209147
H      -0.886959    1.856477    0.041584
H       2.654108    0.656804    0.905406
H       2.525518    0.653339   -0.851607
H       3.812499    2.753638    0.962182
H       4.345328    2.255133   -0.646328
H       2.495876    3.477009   -1.702927
H       0.409543    3.820517   -0.506221
H       1.244335    3.843036    1.060081
