22

C       0.148015    1.471657   -0.086535
O       0.480389    0.104311   -0.169105
C       0.734794   -0.544575    1.062648
C       2.006492   -0.022273    1.731104
C      -0.469574   -0.676915    2.046959
C      -0.150271   -2.190932    2.177159
C       0.743186   -2.100046    0.904013
C       0.082114   -2.631417   -0.363636
H       0.996761    2.096923    0.225467
H      -0.159357    1.784545   -1.087843
H      -0.686382    1.652480    0.607414
H       1.903561    1.020242    2.048835
H       2.243079   -0.612625    2.621814
H       2.851469   -0.092772    1.038380
H      -0.444553   -0.073407    2.957985
H      -1.418172   -0.501461    1.533047
H       0.415056   -2.427695    3.082064
H      -1.000367   -2.874764    2.114911
H       1.740060   -2.541322    1.007585
H      -0.927820   -2.230561   -0.491926
H       0.655879   -2.359993   -1.253756
H       0.009728   -3.723667   -0.318319
