16

C       0.008405    1.516913   -0.017089
C       0.043937    0.011407   -0.037855
C       0.467458   -0.743007   -1.290780
O       0.356305   -2.120213   -0.869864
C      -0.079245   -1.999540    0.456979
C       0.609249   -0.806153    1.178855
O      -0.599756   -0.552404    1.966469
C      -1.101682   -0.838811    0.620191
H       0.997490    1.941192   -0.221928
H      -0.683546    1.909077   -0.770530
H      -0.319397    1.862215    0.967129
H      -0.193418   -0.562469   -2.147734
H       1.499922   -0.530138   -1.594796
H      -0.219968   -2.961399    0.944180
H       1.576084   -0.731975    1.677634
H      -2.178448   -0.803649    0.451687
