19

C      -0.092392    1.551198    0.003090
C       0.069420    0.028547   -0.002622
C       0.735935   -0.500266   -1.281748
C       1.005310   -2.001564   -1.172223
C       1.962715   -2.272394   -0.014287
N       1.524090   -1.583396    1.192166
C       0.774350   -0.440774    1.278575
O       0.632762    0.137105    2.342516
H       0.878634    2.048027   -0.098146
H      -0.725422    1.873029   -0.829732
H      -0.539144    1.881209    0.941820
H      -0.933863   -0.420205    0.059501
H       0.099529   -0.279831   -2.145667
H       1.683111    0.031434   -1.449314
H       0.061890   -2.534889   -1.002063
H       1.439639   -2.397319   -2.095698
H       2.020102   -3.346359    0.195993
H       2.976909   -1.947324   -0.295431
H       1.975189   -1.823337    2.063873
