22

C       0.057538    1.583053    0.001351
C       0.003742    0.053107   -0.048283
N       0.661714   -0.515557   -1.224696
C       2.111666   -0.590987   -1.206331
C      -0.105148   -0.729301   -2.345369
O      -1.304180   -0.533478   -2.363936
C       0.641061   -1.250483   -3.582767
O      -0.274939   -1.405424   -4.623923
C       0.326756   -1.875776   -5.805660
H       1.088084    1.953225    0.007655
H      -0.458944    2.007655   -0.863745
H      -0.434609    1.949958    0.907631
H       0.480587   -0.375384    0.841184
H      -1.034661   -0.279191   -0.074629
H       2.478748   -1.345370   -1.903400
H       2.593998    0.365840   -1.451932
H       2.442902   -0.884973   -0.205316
H       1.444225   -0.543862   -3.859081
H       1.135966   -2.209243   -3.342682
H       1.096333   -1.181332   -6.180352
H       0.797623   -2.862099   -5.663394
H      -0.462495   -1.966080   -6.555308
