10

N       0.111450   -3.692519   -0.019012
C       0.061798   -2.532101   -0.011983
C       0.004261   -1.169427   -0.003766
C      -0.051203    0.037438    0.003517
C      -0.103229    1.444678    0.011859
N      -1.157667    2.213080    0.029716
C      -0.588858    3.458133    0.029113
N       0.719013    3.472881    0.012222
O       1.059107    2.127119    0.000483
H      -1.161745    4.373584    0.041526
