17

N       0.018945    1.356412   -0.010044
C       0.041684   -0.035578    0.001669
N      -1.079985   -0.747075   -0.019806
N      -0.651138   -2.034409   -0.084643
C       0.693872   -2.143436   -0.093462
C       1.203573   -0.859855   -0.031189
C       2.617953   -0.423124   -0.045880
C       3.252700    0.148115    1.178169
N       3.648935   -1.182660    0.687142
H       0.776053    1.770279    0.517047
H      -0.876042    1.725786    0.282947
H      -1.332959   -2.771223   -0.109611
H       1.189636   -3.100343   -0.150374
H       2.985024   -0.047150   -1.000118
H       4.016724    0.914976    1.086913
H       2.649122    0.205146    2.080365
H       3.188520   -1.888136    1.258139
