16

C      -0.399999    1.377400    0.007882
N      -0.027686   -0.032041   -0.008827
C       0.016556   -0.739477   -1.186537
N       0.330646   -1.976939   -1.310511
N       0.645318   -2.621257   -0.139115
C       0.657875   -2.087852    1.127146
N       0.950752   -2.689436    2.217549
C       0.281540   -0.635000    1.207356
N       0.235317    0.036312    2.286506
H       0.411481    1.976181    0.429074
H      -0.610634    1.700341   -1.012548
H      -1.281750    1.526404    0.636177
H      -0.239190   -0.191209   -2.084606
H       0.887844   -3.591059   -0.267293
H       1.192783   -3.669210    2.067182
H       0.494975   -0.588253    3.052338
