13

O       0.034107    1.345536   -0.050257
C      -0.076232    0.013650    0.052423
C      -1.194443   -0.699049   -0.164481
N      -1.183060   -2.077334   -0.025991
C      -0.093035   -2.661815    0.311269
O      -0.032455   -3.995258    0.457975
C       1.177781   -1.964346    0.568854
N       2.256968   -2.530023    0.901466
O       1.089767   -0.582702    0.410356
H       0.943728    1.591336    0.158996
H      -2.119246   -0.219306   -0.449035
H      -0.921504   -4.324686    0.262187
H       3.007603   -1.850129    1.027252
