22

C       0.741103   -0.719154    1.258439
C       0.005706   -0.195579    0.021654
C       0.740599   -0.462725   -1.326676
N       2.099018    0.037621   -1.449375
C       2.295094    1.446999   -1.161217
C       0.782272   -1.964163   -1.570414
O       1.715041   -2.681548   -1.302714
O      -0.381803   -2.410193   -2.078368
C      -0.462461   -3.827786   -2.278109
H       0.893617   -1.801791    1.213346
H       1.726886   -0.254680    1.361913
H       0.173951   -0.496332    2.167031
H      -0.992969   -0.641897   -0.045770
H      -0.148949    0.885213    0.112785
H       0.130087   -0.014090   -2.120146
H       2.730179   -0.557715   -0.926354
H       1.679500    2.048798   -1.840780
H       2.053217    1.761274   -0.131561
H       3.340833    1.706554   -1.351311
H       0.306588   -4.160864   -2.979324
H      -0.328645   -4.359528   -1.332606
H      -1.456595   -4.013991   -2.684323
