22

C      -1.239990    1.316221    0.016817
O      -1.003714   -0.039003   -0.279231
C      -0.238586   -0.250392   -1.458094
C       1.286662   -0.068553   -1.229011
C       1.897898   -1.488703   -1.092516
C       0.839815   -2.462344   -1.593707
C      -0.440283   -1.715829   -1.822106
N       0.282361   -2.315956   -2.927768
C       0.912962   -1.573883   -4.004952
H      -0.313211    1.871859    0.227429
H      -1.763093    1.826637   -0.807712
H      -1.871248    1.347469    0.908481
H      -0.606528    0.426268   -2.246761
H       1.739398    0.484217   -2.056966
H       1.455356    0.527275   -0.327844
H       2.844053   -1.581389   -1.637391
H       2.114441   -1.723322   -0.045231
H       0.862264   -3.480763   -1.212387
H      -1.426712   -2.121699   -1.613362
H       1.481154   -0.679033   -3.714966
H       1.598437   -2.245558   -4.532209
H       0.140130   -1.265701   -4.716670
