18

C      -0.065860    1.475432   -0.004765
C      -0.012343   -0.037231    0.004791
C       1.312237   -0.720796   -0.262879
C       0.710537   -0.733232    1.139009
C       0.522201   -2.257495    1.328280
N       1.772045   -2.877468    0.745468
C       1.329481   -2.240812   -0.552588
C      -0.064085   -2.675572   -0.040819
O      -1.047208   -3.190948   -0.467353
H       0.857403    1.907702    0.395381
H      -0.199749    1.857119   -1.022310
H      -0.898143    1.842689    0.604692
H      -0.909341   -0.512329   -0.384420
H       2.177683   -0.123312   -0.529369
H       1.109739   -0.145382    1.958809
H       0.163177   -2.634903    2.283782
H       2.614841   -2.430842    1.111163
H       1.777152   -2.601547   -1.476591
