16

C      -0.073752    1.506180    0.013850
O       1.110413    0.682850    0.023837
C      -0.152977    0.048522    0.012643
C      -0.489118   -0.978019    1.058075
C      -1.709775   -1.787045    0.701852
C      -2.676039   -1.253890   -0.306174
C      -1.990905   -0.855191   -1.377921
C      -0.519665   -0.993785   -1.064309
N      -0.430330   -2.084610    0.023923
H      -0.261146    2.060695    0.932216
H      -0.243143    2.062360   -0.907176
H       0.001277   -1.055583    2.023133
H      -2.026433   -2.526119    1.432436
H      -3.745505   -1.209221   -0.149975
H      -2.379926   -0.374900   -2.266082
H       0.182191   -1.118593   -1.887507
