19

C      -0.426499    1.526273   -0.177452
C       0.000990    0.067984    0.028562
C       0.659663   -0.534202   -1.221319
C       1.971922    0.104810   -1.384567
N       3.005389    0.619738   -1.447896
C       0.582731   -2.057938   -1.565166
C      -0.891123   -1.779844   -1.922491
N      -0.178859   -0.560537   -2.546113
C       0.847724   -1.615219   -3.019859
H       0.431948    2.158811   -0.421715
H      -1.146803    1.607602   -0.995912
H      -0.888028    1.920322    0.732106
H       0.727906    0.001304    0.846043
H      -0.856559   -0.533409    0.336247
H       1.020152   -2.887377   -1.000356
H      -1.346152   -2.423812   -2.677319
H      -1.610159   -1.540723   -1.141313
H       1.823643   -1.202504   -3.277550
H       0.458577   -2.250228   -3.817586
