16

O      -0.012659    1.335641    0.152014
C       0.091003   -0.033445    0.112628
C       0.796170   -0.997562    1.090699
C       0.089432   -1.907153    0.064279
C      -1.154244   -0.959223   -0.039930
C      -1.085106   -0.956398   -1.590420
C      -1.598299    0.187207   -2.329643
N      -2.012348    1.072992   -2.946837
C       0.397379   -0.953754   -1.135620
H       0.850633    1.726111   -0.022933
H       1.890852   -1.006570    1.079779
H       0.414158   -1.021686    2.115434
H       0.061580   -2.992661    0.012772
H      -2.038786   -0.967151    0.595832
H      -1.420670   -1.881843   -2.068903
H       1.292519   -0.952931   -1.757842
