19

O       0.100594    1.491401    0.216762
C       0.072665    0.096631    0.003560
C      -1.354819   -0.482697   -0.013818
C      -2.112801   -0.099231   -1.287193
O      -2.144663    1.326634   -1.394378
C      -1.366900   -2.025801    0.125800
O      -0.692646   -2.669779   -0.958233
C      -0.845179   -2.464086    1.422150
C      -0.387910   -2.824502    2.473917
H      -0.535325    1.868030   -0.406201
H       0.582395   -0.177936   -0.936860
H       0.637794   -0.354831    0.826416
H      -1.887377   -0.067696    0.850790
H      -1.608330   -0.547365   -2.153188
H      -3.137811   -0.499483   -1.250679
H      -2.426964    1.560542   -2.283046
H      -2.407776   -2.364763    0.041719
H       0.250698   -2.660240   -0.764168
H       0.004456   -3.146738    3.407116
