21

C      -0.032937    1.503963    0.086969
C       0.140597   -0.002968    0.035581
C       0.762728   -0.559894   -1.264419
C       1.650213   -1.745437   -0.781191
C       1.438258   -1.723934    0.751492
O       1.037982   -0.403768    1.068285
C       1.315537   -3.054855   -1.461249
C       1.349261   -4.364302   -0.797900
O       0.105487   -3.713733   -1.074227
H       0.928950    2.003422   -0.066641
H      -0.727150    1.836404   -0.690989
H      -0.430396    1.813292    1.057652
H      -0.833732   -0.493751    0.200582
H      -0.005984   -0.882110   -1.971657
H       1.369556    0.206733   -1.754868
H       2.699403   -1.525255   -1.006435
H       0.651016   -2.441850    1.028512
H       2.342733   -1.948101    1.322289
H       1.474761   -3.048515   -2.541578
H       1.546258   -5.261710   -1.382577
H       1.613433   -4.434318    0.256113
