12

N      -0.130903    1.327252    0.019123
C       0.044822   -0.023687    0.011502
O       1.132197   -0.570906    0.002161
C      -1.200371   -0.816395    0.015375
C      -1.429869   -2.155140    0.011174
N      -2.795308   -2.389663    0.018548
C      -3.318790   -1.205947    0.025766
O      -2.426650   -0.191750    0.025887
H       0.686971    1.912829    0.013443
H      -1.044600    1.745223    0.022473
H      -0.704297   -2.951407    0.003330
H      -4.363087   -0.935216    0.033177
