18

C      -0.475148    1.104861   -0.159298
C       1.031915    1.118040    0.040268
C       0.287364   -0.172854    0.082549
C       0.087367   -1.029277    1.333578
C      -0.439399   -2.336842    0.762751
C      -1.581259   -2.245474   -0.237400
C      -0.151335   -2.261414   -0.710664
O       0.471678   -1.040097   -1.021861
H      -1.107002    1.495485    0.632346
H      -0.840333    1.273614   -1.166160
H       1.648383    1.298418   -0.833149
H       1.431882    1.512085    0.968623
H       1.041777   -1.210579    1.842044
H      -0.588697   -0.549521    2.047670
H      -0.302947   -3.249682    1.330052
H      -2.164658   -3.145598   -0.399857
H      -2.145213   -1.322151   -0.312157
H       0.240122   -3.078636   -1.303994
