17

O      -0.030660   -0.020017   -0.421092
C      -0.050470    1.153324   -0.097753
C      -1.379583    1.875191    0.172942
O      -1.464508    2.551452    1.409039
C      -0.935913    3.862392    1.427659
C       0.591925    3.907174    1.434262
C       1.228592    3.329358    0.166326
N       1.097996    1.883767    0.035389
H      -1.594341    2.561316   -0.665014
H      -2.141094    1.093703    0.178149
H      -1.322370    4.437480    0.568027
H      -1.326464    4.326466    2.338658
H       0.903089    4.954887    1.531829
H       0.968556    3.365137    2.308462
H       0.816881    3.842882   -0.716447
H       2.300711    3.542048    0.174567
H       1.926650    1.357545   -0.199681
