23

C       0.110341    1.511448   -0.245467
C       0.264198    0.000146   -0.060207
C       0.315192   -0.415643    1.417574
C       0.424330   -1.911641    1.585798
O       1.684078   -2.553556    1.276922
C       1.193769   -2.610506    2.626210
C       2.089183   -1.935894    3.667348
C       2.934316   -2.976813    4.409882
O       2.915637   -0.954358    3.065199
H       0.941861    2.053121    0.218478
H       0.085853    1.782183   -1.305517
H      -0.816207    1.875275    0.212909
H      -0.565780   -0.519348   -0.557536
H       1.179780   -0.344748   -0.555674
H       1.148099    0.077680    1.924331
H      -0.606477   -0.090872    1.920998
H      -0.421159   -2.466499    1.170850
H       0.839288   -3.599261    2.923461
H       1.452412   -1.411757    4.392981
H       3.549646   -3.546427    3.705004
H       3.598350   -2.475436    5.118205
H       2.302552   -3.680804    4.962780
H       3.078236   -1.274004    2.165852
