23

C      -0.614064    1.572515   -0.509641
O      -0.804836    0.184466   -0.644470
C      -0.409747   -0.538352    0.497903
C      -0.643922   -2.024937    0.233814
C       0.193293   -2.539350   -0.935837
O      -0.330434   -2.674043    1.459854
C      -0.786786   -4.010487    1.582711
C      -0.643708   -4.382750    3.051041
O      -1.395048   -3.518055    3.878278
H      -0.946708    2.040561   -1.439201
H      -1.200162    1.985360    0.326492
H       0.445050    1.824457   -0.342515
H       0.655847   -0.366924    0.727077
H      -0.991843   -0.231028    1.381717
H      -1.713320   -2.165591    0.007961
H      -0.043302   -3.579241   -1.177388
H      -0.003550   -1.928028   -1.819657
H       1.259203   -2.473305   -0.693078
H      -1.843428   -4.078143    1.279465
H      -0.201168   -4.698677    0.954784
H      -1.019161   -5.398727    3.212079
H       0.424842   -4.371039    3.320317
H      -1.172851   -2.626913    3.583146
