15

O      -0.833133    1.077448   -0.021322
C       0.306265    0.706803    0.105016
C       1.504021    1.622889   -0.035764
N       2.635616    1.014228   -0.789988
C       2.688135    2.188832   -1.711439
C       1.401102    2.783528   -1.067898
N       0.707252    2.482108   -2.312813
C       1.797479    1.912167   -2.958720
O       1.925779    1.386567   -4.026649
H       0.561402   -0.354284    0.320773
H       1.780897    1.993582    0.961979
H       3.479346    0.901123   -0.241995
H       3.639981    2.705288   -1.822085
H       1.285695    3.800297   -0.696716
H      -0.281179    2.339474   -2.468646
