20

C       0.132819    1.546326   -0.079615
C      -0.003260    0.038194    0.071978
O       0.401073   -0.540125   -1.191155
C       0.842241   -1.821190   -1.196381
N       1.277087   -2.519851   -0.235960
C       1.361405   -1.915154    1.067016
C       1.311866   -2.923332    2.190735
C       2.266927   -0.700840    1.186543
C       0.767641   -0.538221    1.240061
H       1.182757    1.824838   -0.206232
H      -0.429961    1.896689   -0.949076
H      -0.253817    2.048916    0.812281
H      -1.063427   -0.221360    0.206143
H       0.810315   -2.223551   -2.207189
H       2.112352   -3.660542    2.073835
H       1.426549   -2.435598    3.163610
H       0.358579   -3.462336    2.187544
H       2.827214   -0.568080    2.106202
H       2.790131   -0.386869    0.289298
H       0.328285   -0.298260    2.204944
