19

C      -0.071028    1.533800    0.104901
C       0.019521    0.025824    0.009380
C       1.078964   -0.658607   -0.926068
C       1.075019   -1.832834    0.082287
C       0.655086   -0.817020    1.171964
O       0.042251   -2.761916   -0.196581
C      -1.236867   -2.178340   -0.410864
C      -1.301996   -0.646167   -0.308282
O      -2.345925   -0.063321   -0.475512
H       0.909395    1.962192    0.335794
H      -0.426329    1.965273   -0.835491
H      -0.775012    1.835296    0.886082
H       0.807483   -0.876837   -1.962270
H       2.020375   -0.103392   -0.901758
H       1.980326   -2.424829    0.220496
H       1.516260   -0.291782    1.593406
H       0.011069   -1.174475    1.979744
H      -1.603198   -2.457309   -1.407408
H      -1.951191   -2.587386    0.315461
