19

C      -0.053777    1.504633    0.073769
C      -0.031179    0.003366   -0.008517
C      -0.023169   -0.688976   -1.160768
C       0.041285   -2.187802   -1.262539
C       0.533332   -2.846896    0.032364
C      -0.206074   -2.248050    1.228423
O       0.188730   -2.833637    2.437270
C       0.014388   -0.736327    1.272086
O       0.201412   -0.191045    2.347029
H       0.821915    1.874428    0.616324
H      -0.069481    1.955625   -0.921361
H      -0.929576    1.853485    0.631469
H      -0.066166   -0.139872   -2.100295
H      -0.961813   -2.564745   -1.518141
H       0.678866   -2.469245   -2.108451
H       0.381417   -3.929766    0.008010
H       1.607952   -2.671172    0.161032
H      -1.293623   -2.390251    1.065762
H       0.288074   -2.090137    3.054133
