17

O      -0.077224    1.447365    0.019662
C       0.010779    0.030043    0.015602
C       0.754512   -0.520596    1.238246
C       0.650773   -2.049659    1.278192
O      -0.696897   -2.482542    1.268745
C      -1.388542   -2.049852    0.109314
C      -1.412254   -0.522964   -0.006264
H       0.817148    1.800988    0.065194
H       0.532635   -0.314879   -0.895155
H       1.810681   -0.220636    1.218896
H       0.303022   -0.097755    2.143103
H       1.194299   -2.484747    0.420548
H       1.097143   -2.450615    2.192538
H      -0.923327   -2.488396   -0.791268
H      -2.402061   -2.452382    0.189341
H      -1.965306   -0.098462    0.839299
H      -1.923617   -0.217517   -0.925318
