20

O      -0.017735    1.082021    0.340990
C      -0.046622   -0.303996    0.076885
C      -1.467958   -0.764839   -0.255912
N      -2.013464    0.058429   -1.344783
C      -1.594347   -0.375536   -2.692958
C      -2.811461   -1.044664   -3.305103
O      -3.413992   -2.010955   -2.434182
C      -3.972041   -0.691484   -2.485469
C      -3.481375    0.201090   -1.360879
H      -0.632332    1.458179   -0.306215
H       0.640077   -0.568912   -0.746137
H       0.310129   -0.826584    0.971656
H      -1.489697   -1.841074   -0.484659
H      -2.091426   -0.598002    0.627703
H      -1.302449    0.480541   -3.317457
H      -0.730980   -1.043969   -2.626638
H      -2.865717   -1.256160   -4.369755
H      -4.983010   -0.609540   -2.875785
H      -3.901760   -0.065659   -0.387783
H      -3.775215    1.238571   -1.578797
