17

O       0.343380    0.638476   -2.131477
C       0.086755    1.361985   -1.194929
C       1.125793    1.807615   -0.183038
C       2.493331    1.151089   -0.428748
C       3.496320    1.587654    0.533796
C       4.305540    1.962223    1.339679
C      -1.318561    1.873865   -1.019955
C      -2.049379    1.692199    0.252100
O      -1.529753    2.960252   -0.116713
H       1.198033    2.900743   -0.231406
H       0.770054    1.597483    0.832435
H       2.384880    0.061113   -0.392255
H       2.822621    1.376767   -1.448882
H       5.032953    2.284482    2.042668
H      -1.893144    1.902045   -1.944303
H      -3.132990    1.594659    0.217816
H      -1.560712    1.206854    1.095012
