14

C      -0.012316    1.383771    0.008744
O       0.032966   -0.047955   -0.051985
C       0.639187   -0.582871   -1.115432
N       1.154269    0.151127   -2.034968
O       1.756167   -0.546314   -3.088450
C       1.798866   -1.939414   -3.141788
N       2.358490   -2.516420   -4.118011
N       1.219604   -2.682100   -2.111183
C       0.671472   -2.039883   -1.153300
H       0.999548    1.798452    0.020997
H      -0.548201    1.786669   -0.855246
H      -0.537597    1.620115    0.933393
H       2.725842   -1.826498   -4.774452
H       0.209804   -2.587042   -0.332419
