21

C      -0.084305    1.590813    0.103020
C      -0.035672    0.061878    0.056753
C      -1.424107   -0.584265   -0.031283
O      -2.142881   -0.135945   -1.179203
C      -1.367293   -2.108956    0.013664
C      -1.017140   -2.767646    1.387668
C      -2.280354   -3.633957    1.233643
O      -2.697585   -4.593706    1.812810
C      -2.741709   -2.848200   -0.002057
H       0.922034    2.019689    0.104487
H      -0.627768    1.984983   -0.759579
H      -0.597931    1.940286    1.005438
H       0.555393   -0.269511   -0.810207
H       0.483022   -0.326869    0.941892
H      -2.032323   -0.235819    0.815922
H      -1.640167   -0.396099   -1.959740
H      -0.707119   -2.474705   -0.781315
H      -0.074402   -3.313273    1.475345
H      -1.096113   -2.075755    2.234515
H      -3.587626   -2.185956    0.211855
H      -2.994595   -3.449861   -0.878617
