17

C      -0.114689    1.585572    0.047415
C       0.064243    0.070388   -0.043400
N       0.955576   -0.374089   -1.101696
C       1.937852   -1.221214   -0.657319
O       2.755547   -1.827693   -1.306722
N       1.824376   -1.246487    0.750321
C       2.744676   -1.968801    1.605664
C       0.757816   -0.504769    1.201949
O       0.437054   -0.336059    2.354444
H       0.856586    2.084906    0.101518
H      -0.653645    1.967406   -0.824311
H      -0.685618    1.827135    0.947352
H      -0.920722   -0.411642   -0.122528
H       0.716313   -0.370165   -2.078844
H       3.439017   -2.504300    0.957547
H       3.294075   -1.277885    2.251269
H       2.199451   -2.674616    2.237305
