20

C       0.052447    1.521142   -0.241101
C       0.060172    0.015323   -0.007944
C       0.597860   -0.824880   -1.191423
C       1.195429   -2.079679   -0.531979
C       2.421918   -2.641213   -1.220658
O       3.005258   -2.115375   -2.134796
C       1.541298   -1.615347    0.894781
C       2.304494   -0.344128    1.007660
N       0.845811   -0.359302    1.193952
H       1.060381    1.892183   -0.454787
H      -0.585737    1.773887   -1.093537
H      -0.326063    2.047013    0.639789
H      -0.964191   -0.308414    0.216297
H      -0.186676   -1.069863   -1.911153
H       1.379738   -0.297213   -1.744592
H       0.459231   -2.890468   -0.451733
H       2.789364   -3.601280   -0.790999
H       1.583902   -2.360769    1.683379
H       2.869987   -0.129879    1.909374
H       2.726153    0.081258    0.100484
