15

N      -0.002446    1.328703    0.007593
C      -0.031154   -0.005365    0.001179
N      -1.213755   -0.573969    0.005079
C      -1.449235   -1.900296   -0.000542
C      -0.597344   -2.972613   -0.011207
C       0.822006   -2.931398   -0.019279
N       1.669041   -1.945497   -0.018983
C       1.372249   -0.600657   -0.010279
N       2.306896    0.284018   -0.009906
H       0.908942    1.768700    0.004332
H      -0.871615    1.836124    0.015293
H      -2.514468   -2.132249    0.004473
H      -1.047332   -3.960267   -0.013798
H       1.301626   -3.913961   -0.027267
H       3.209067   -0.193450   -0.017255
