21

C      -0.025976    1.510123   -0.181271
C       1.377475    2.059451   -0.016511
C       1.923516    2.494187    1.120799
C       1.251363    2.527281    2.479319
C       1.520121    1.252816    3.255004
C       0.758369    0.157234    3.255951
C      -0.530278   -0.035610    2.481386
C      -0.264796   -0.657581    1.124565
C      -0.048536    0.003516   -0.014164
H      -0.703314    1.980615    0.536461
H      -0.401566    1.769337   -1.177698
H       1.998230    2.040297   -0.910304
H       2.965000    2.809709    1.102812
H       1.628628    3.384312    3.048769
H       0.175078    2.681664    2.365223
H       2.452639    1.230775    3.815773
H       1.104374   -0.708543    3.817437
H      -1.202706   -0.685458    3.052921
H      -1.048412    0.919813    2.364539
H      -0.195470   -1.743636    1.109783
H       0.186641   -0.573272   -0.906654
