23

C       0.093095    1.526358    0.288441
C       0.001529    0.044517   -0.116861
C      -1.404768   -0.505862   -0.110674
C      -1.993929   -0.944071   -1.227288
C      -3.396262   -1.492392   -1.292972
C      -4.208885   -1.156749   -0.037048
O      -5.394645   -1.935842    0.059201
C      -3.373789   -1.426553    1.208915
C      -2.121836   -0.539585    1.223761
H       1.129363    1.875928    0.246873
H      -0.503121    2.151909   -0.383850
H      -0.269719    1.690688    1.307752
H       0.435571   -0.083917   -1.114612
H       0.623245   -0.544773    0.572787
H      -1.439478   -0.915809   -2.163626
H      -3.906802   -1.106604   -2.187112
H      -3.377436   -2.586466   -1.406410
H      -4.462338   -0.082704   -0.059592
H      -5.904962   -1.800186   -0.745663
H      -3.982532   -1.257935    2.102620
H      -3.087292   -2.485411    1.209336
H      -1.429205   -0.885990    2.002346
H      -2.395474    0.484098    1.517322
