10

O      -0.070516    1.333604    0.009874
C       1.259897    1.697830   -0.000921
N       2.134905    0.727892   -0.014589
C       1.312990   -0.361971   -0.012217
C       0.008957   -0.021273    0.002170
N      -0.812958   -1.111136    0.004505
C       0.062052   -2.081075   -0.008919
O       1.392462   -1.716848   -0.019982
H       1.454638    2.757736    0.002707
H      -0.132689   -3.140981   -0.012506
