18

O      -0.233365    0.084928    0.105155
C      -0.045959    1.271646    0.027000
C       1.314814    1.940522    0.000243
C       1.473136    2.758346   -1.308351
C       2.640636    3.708629   -1.262855
C       3.045034    4.287300   -0.131692
C       2.370988    4.002385    1.156920
N       0.887913    4.151425    1.194474
C       1.479809    2.809709    1.239555
H      -0.897160    1.989880   -0.025295
H       2.070827    1.148699    0.037730
H       1.574631    2.065966   -2.150485
H       0.550385    3.326717   -1.483251
H       3.143510    3.927253   -2.200393
H       3.885270    4.974638   -0.124006
H       2.909355    4.279775    2.058728
H       0.595294    4.434618    2.126428
H       1.455052    2.269051    2.183496
