19

C      -0.007648    1.535346   -0.059229
C      -0.159405    0.028024   -0.146331
O       0.865183   -0.472218   -1.010763
C       0.820172   -1.828784   -1.198946
C       1.550922   -2.868348   -0.347526
O       1.835874   -3.670491   -1.534214
C       1.280010   -2.656570   -2.387836
C      -0.185282   -2.548451   -2.086618
O      -0.931339   -3.654314   -1.689697
H       0.974136    1.801176    0.342578
H      -0.107039    1.989394   -1.049234
H      -0.776550    1.956122    0.595366
H      -0.065514   -0.431223    0.848984
H      -1.145285   -0.250380   -0.544722
H       2.480794   -2.487862    0.086725
H       0.973163   -3.424277    0.398316
H       1.790423   -2.436840   -3.318370
H      -0.736331   -1.873872   -2.737290
H      -0.300118   -4.382721   -1.609711
