16

N       0.083604    1.232104   -0.393860
C       0.054232    0.036878   -0.033915
O       1.129076   -0.854312    0.264152
C       0.148594   -1.680022    1.016746
C      -0.718158   -3.002682    0.907771
C      -1.924224   -1.934885    1.153813
C      -0.961590   -1.073446    0.216297
C      -0.979503   -1.966343   -1.051325
C      -0.832500   -3.206857   -0.592228
H       1.042398    1.573930   -0.480213
H       0.218621   -1.356755    2.058163
H      -0.574520   -3.854830    1.571514
H      -2.890105   -2.224613    0.738382
H      -2.016133   -1.581239    2.183219
H      -1.107099   -1.583996   -2.053327
H      -0.800485   -4.151243   -1.115249
