20

C       0.061485    1.622094   -0.153063
C      -0.107728    0.134566    0.085246
C      -1.370147   -0.463266   -0.516487
O      -1.344912   -0.516595   -1.935972
N       1.126217   -0.667129    0.003432
C       0.435933   -0.552584    1.293042
C       1.178521    0.152817    2.420714
C       1.971553   -0.775459    3.220462
C       2.605390   -1.561043    3.872656
H       1.012996    1.986004    0.236555
H       0.056858    1.841039   -1.227487
H      -0.750188    2.192695    0.312553
H      -1.477103   -1.503189   -0.189754
H      -2.253123    0.087468   -0.154203
H      -1.383417    0.383587   -2.273040
H       0.944492   -1.564112   -0.440451
H      -0.127655   -1.419161    1.636968
H       1.832434    0.922723    2.000004
H       0.455397    0.665780    3.069010
H       3.177287   -2.245405    4.448537
