18

C      -0.017071    1.593780   -0.098831
C       1.476320    1.834143    0.057723
C       2.116082    0.766596    0.571119
C       1.150928   -0.297129    0.794873
C       0.944940   -1.296218    1.665380
C      -0.512449   -1.623942    1.687263
N      -1.328852   -0.444878    2.139130
C      -1.190116   -0.725695    0.698290
C      -0.096869    0.051126   -0.009014
H      -0.560086    2.051420    0.739888
H      -0.429527    2.007535   -1.024413
H       1.939677    2.791126   -0.156416
H       3.161448    0.731456    0.852172
H       1.658913   -1.693125    2.376294
H      -0.883731   -2.615268    1.924983
H      -2.244278   -0.783491    2.433519
H      -2.063244   -1.057695    0.146404
H       0.016696   -0.353379   -1.025349
