10

O       0.032361   -0.059104    0.002760
C      -0.050743    1.140596    0.007315
C       1.143909    1.998847    0.001530
N       2.105225    2.640251   -0.003276
C      -1.351346    1.858684    0.018901
N      -2.543965    1.341628    0.025783
C      -3.326108    2.463797    0.034834
N      -2.669245    3.598688    0.034031
O      -1.342512    3.199297    0.023080
H      -4.405787    2.440892    0.042558
