15

C       0.427135    1.074503   -0.774005
C       0.072121   -0.301311   -0.182663
N       1.228837   -0.843326    0.518980
C       1.152988   -1.163323    1.734372
O       2.207580   -1.660867    2.437611
C       3.291651   -2.184964    1.760018
O       4.281742   -2.482761    2.344806
C      -1.157537   -0.216113    0.632090
N      -2.097210   -0.160228    1.302852
H       1.322998    0.973469   -1.389891
H      -0.394385    1.451324   -1.387744
H       0.628546    1.791520    0.025352
H      -0.143763   -0.985609   -1.012942
H       0.279449   -1.075922    2.383925
H       3.100135   -2.295774    0.685592
