25

C      -0.287372    1.588669    0.097378
C       0.057173    0.103233   -0.038610
C       0.650812   -0.497506    1.239947
C       1.008748   -1.984082    1.104456
C       1.588446   -2.580407    2.373095
O       2.804764   -1.990799    2.775520
C       0.683283   -3.079708    3.479154
C       1.531008   -4.051000    2.673895
C       0.906082   -5.080215    1.758611
H       0.602385    2.180889    0.339256
H      -0.710224    1.988096   -0.829734
H      -1.019725    1.754042    0.895595
H      -0.844425   -0.458726   -0.316659
H       0.766214   -0.035408   -0.865336
H       1.551212    0.070668    1.511714
H      -0.059825   -0.368091    2.068224
H       0.113032   -2.542546    0.811134
H       1.739086   -2.109181    0.294059
H       2.605805   -1.117508    3.129760
H       0.978365   -2.874305    4.502382
H      -0.389048   -3.079381    3.305111
H       2.420671   -4.395998    3.193754
H      -0.018399   -4.716891    1.300388
H       1.588558   -5.366502    0.950567
H       0.654769   -5.988037    2.318058
