15

O       0.009171    1.487125    0.071763
C      -0.046313    0.107677    0.009593
C       0.858312   -0.511661    1.059763
O       1.542923    0.183081    1.770820
C      -1.399013   -0.614816   -0.044444
C      -2.082306   -0.407400   -1.329149
N      -0.979824   -1.411255   -1.291018
C       0.217365   -0.605207   -1.355814
N       1.092415   -0.602270   -2.251720
H       0.628593    1.696046    0.792333
H       0.858935   -1.615560    1.126122
H      -1.870214   -1.117295    0.792463
H      -3.056556   -0.868159   -1.451582
H      -1.928172    0.508937   -1.890743
H       1.829752    0.072107   -2.037563
