17

N      -0.107220    1.450362   -0.186170
C      -0.008866    0.010966   -0.028841
C       0.859365   -0.440190    1.148536
O       1.427776    0.321454    1.900319
N       0.974040   -1.813797    1.327541
C       1.724247   -2.565559    2.351184
C       1.210627   -3.872665    1.683197
C       0.479817   -2.959240    0.682794
O      -0.231011   -3.090811   -0.271846
H      -0.463332    1.853686    0.676313
H       0.828016    1.837249   -0.281136
H      -1.007215   -0.426022    0.089799
H       0.386475   -0.443822   -0.944611
H       2.801450   -2.396243    2.301024
H       1.368022   -2.377056    3.365641
H       1.974097   -4.505822    1.228280
H       0.543757   -4.486690    2.290636
