23

C       0.119950    1.205824   -0.356235
O       0.020963   -0.078754    0.214288
C      -1.285785   -0.592551    0.212035
C      -1.896331   -1.112503   -1.127028
C      -2.259537   -2.453840   -0.426417
C      -1.246517   -3.590155   -0.680970
C      -0.306228   -2.985785    0.404011
C      -1.431270   -1.993469    0.840477
C      -1.912782   -2.090107    2.271292
H       1.166440    1.513712   -0.290095
H      -0.184032    1.213000   -1.413855
H      -0.501088    1.938445    0.183660
H      -1.968975    0.123573    0.698847
H      -2.738245   -0.534023   -1.513747
H      -1.154791   -1.225184   -1.924217
H      -3.321500   -2.701077   -0.382632
H      -1.636702   -4.569840   -0.390559
H      -0.850300   -3.668557   -1.698289
H      -0.000123   -3.683279    1.187491
H       0.585330   -2.486087    0.021437
H      -1.142985   -1.729970    2.964985
H      -2.815884   -1.490647    2.434480
H      -2.145308   -3.125453    2.545346
