17

C      -0.178337    1.431865   -0.019281
N      -0.074916   -0.030281    0.002054
C       0.055354   -0.669255   -1.239302
N       0.196332    0.019059   -2.294221
O       0.041006   -2.026397   -1.249394
C      -0.488585   -2.701255   -0.103571
C       0.187032   -2.179408    1.148876
C       0.039023   -0.672455    1.232092
O       0.017222   -0.070352    2.283395
H       0.739109    1.871062   -0.417092
H      -1.005320    1.729198   -0.665227
H      -0.343391    1.759244    1.004603
H       0.233329   -0.598984   -3.102638
H      -1.575318   -2.551275   -0.058871
H      -0.292605   -3.761350   -0.273275
H      -0.237288   -2.609227    2.058398
H       1.255600   -2.424308    1.128211
