20

C      -0.211423    1.621511   -0.039962
C       0.043349    0.120895    0.000253
C       1.108278   -0.587596   -0.895978
C       2.414966    0.134460   -0.513857
C       2.387726   -0.318119    0.963198
C       2.549249   -1.853541    0.799109
C       1.144708   -1.757487    0.187493
C       0.818669   -0.562423    1.138248
H       0.685479    2.208422    0.176082
H      -0.588462    1.933872   -1.020834
H      -0.966005    1.899101    0.704677
H      -0.910715   -0.409562   -0.115545
H       0.916871   -0.785846   -1.950905
H       3.294469   -0.245821   -1.042060
H       2.371022    1.215014   -0.665598
H       2.970233    0.245693    1.691170
H       3.390180   -2.220792    0.200812
H       2.517131   -2.385499    1.754873
H       0.475715   -2.604644    0.039585
H       0.438733   -0.689265    2.152318
