13

N      -0.168089   -1.244584    0.015512
C      -0.137016   -0.087681    0.031083
C      -0.096353    1.326934    0.059299
C      -0.907558    2.382693    0.750442
C       0.066711    3.001085    1.786276
N       1.355280    3.112902    1.010127
C       1.112201    2.369390    0.024140
O       0.773589    2.872109   -1.236765
C      -0.577542    2.396697   -0.821018
H      -1.954326    2.213067    0.990105
H      -0.184773    4.029020    2.060492
H       0.117284    2.393886    2.700203
H      -1.327707    2.410285   -1.601622
