16

O      -0.123932    1.357500   -0.044177
N       0.019645   -0.034147    0.036530
C      -1.101462   -0.614078    0.005718
C      -2.563145   -0.257144   -0.149033
N      -2.828947   -1.706228   -0.389849
C      -1.450319   -2.088310    0.020991
C      -0.707771   -2.993373   -0.974241
C      -1.230164   -4.357350   -0.960672
N      -1.658823   -5.429830   -0.923766
H       0.789888    1.662430   -0.020377
H      -3.001861    0.160721    0.767194
H      -2.821119    0.396240   -0.988825
H      -3.562701   -2.105866    0.182767
H      -1.383824   -2.523264    1.028146
H      -0.809552   -2.577795   -1.981218
H       0.358731   -3.011270   -0.724375
