19

C       0.139557    1.587842    0.052872
C       0.014303    0.058360   -0.041353
C       0.609623   -0.632430    1.213403
C      -1.464776   -0.360853   -0.123574
O      -2.395914    0.392202   -0.034137
C       0.662524   -0.465946   -1.245269
C       1.164736   -0.922823   -2.240323
C       1.777228   -1.447887   -3.454227
O       2.598134   -2.563647   -3.131697
H       1.190700    1.875658    0.133569
H      -0.288391    2.067678   -0.829662
H      -0.400108    1.953639    0.929895
H       0.129123   -0.248363    2.118538
H       0.469808   -1.716325    1.172171
H       1.682395   -0.432513    1.272104
H      -1.606132   -1.454952   -0.268871
H       0.981811   -1.728769   -4.163775
H       2.361982   -0.646318   -3.934503
H       2.978397   -2.887012   -3.954905
