13

C       0.442792    1.512619    0.218746
O       1.175126    0.379829   -0.241412
C      -0.209782    0.198887    0.095593
C      -0.522531   -0.645266    1.251001
C      -1.388221   -1.669805    1.461093
N      -1.278487   -2.109977    2.773641
C      -0.366957   -1.347438    3.281145
O       0.142644   -0.427814    2.430009
H       0.716480    1.875493    1.207298
H       0.237758    2.280000   -0.526679
H      -0.861305    0.019564   -0.758476
H      -2.078888   -2.121124    0.766590
H       0.034405   -1.354328    4.282182
