18

O      -0.113462    0.009316    0.145523
C      -0.062524    1.204809    0.045674
N      -1.023697    2.182855   -0.080252
C      -0.101525    3.319509    0.092102
C      -0.225641    4.053559    1.445135
C       1.102955    4.070776    2.206016
O       1.622240    2.761196    2.339081
C       2.117045    2.273583    1.106798
C       1.062635    2.268505    0.003746
H      -2.022061    2.129966    0.068865
H      -0.135458    4.021311   -0.746125
H      -0.589953    5.076683    1.302382
H      -0.959848    3.528276    2.064179
H       1.836488    4.720435    1.698214
H       0.960243    4.457112    3.219184
H       2.980658    2.881863    0.789887
H       2.468319    1.253237    1.287549
H       1.546763    2.267265   -0.976875
