21

C      -0.025484    1.551512    0.077714
C      -0.024186    0.024495   -0.054432
C       0.739197   -0.505164   -1.271822
O       0.147753   -0.075790   -2.492930
C       2.295125   -0.275977   -1.217618
C       2.713984   -1.758024   -1.248661
C       1.849990   -2.374762   -2.370217
C       0.789546   -2.055702   -1.299742
O       1.786457   -2.340882   -0.270934
H       0.989620    1.956207    0.150889
H      -0.520044    2.035010   -0.773538
H      -0.569562    1.862162    0.974324
H       0.417039   -0.428558    0.838918
H      -1.059320   -0.333202   -0.121416
H       0.118550    0.885907   -2.491723
H       2.650150    0.295123   -2.079511
H       2.628340    0.211030   -0.298444
H       3.759256   -2.018097   -1.081378
H       1.787370   -1.876861   -3.338180
H       2.015646   -3.448105   -2.466129
H      -0.149651   -2.597152   -1.185953
