19

O      -0.013914    0.316361   -1.033478
C      -0.088865    1.168345   -0.182013
C      -1.366781    1.993544    0.018626
O      -1.314156    2.794665    1.181409
C      -0.242636    3.717790    1.136782
C       0.276012    4.112872    2.536192
C       1.718198    3.718252    2.100513
C       1.145026    3.082502    0.800361
C       1.036724    1.551512    0.764433
H      -1.540937    2.592995   -0.891442
H      -2.215413    1.312102    0.127529
H      -0.501908    4.569823    0.491499
H       0.118647    5.148962    2.841278
H      -0.142415    3.454153    3.300100
H       2.358343    4.580622    1.901439
H       2.257288    3.038921    2.765376
H       1.600439    3.440264   -0.126973
H       0.770901    1.177879    1.762320
H       1.962838    1.063078    0.453650
