23

C      -0.037875    1.501881   -0.010547
C       0.002663    0.046076   -0.014147
C       0.035124   -1.158985   -0.015792
C       0.070098   -2.613143   -0.013236
C       1.057997   -3.139278   -1.066611
C       0.273751   -3.299287    1.384544
C      -0.869032   -4.296514    1.048756
C      -1.869567   -4.645198    2.140080
C      -1.319731   -3.340206   -0.089450
H       0.645597    1.923212   -0.756408
H      -1.043248    1.874389   -0.237705
H       0.250079    1.907397    0.966067
H       2.069187   -2.772622   -0.865235
H       1.084274   -4.233995   -1.064624
H       0.768883   -2.806018   -2.068033
H       1.268981   -3.706121    1.584212
H      -0.002865   -2.625830    2.200009
H      -0.454948   -5.218520    0.626700
H      -2.300619   -3.738969    2.580916
H      -2.694992   -5.249093    1.746218
H      -1.396437   -5.215747    2.947400
H      -2.129658   -2.680445    0.232694
H      -1.584502   -3.779396   -1.055303
