20

C       0.061593    1.509749    0.096622
C      -0.020692    0.029322   -0.059309
C       0.835886   -0.958203   -0.769561
C      -0.312943   -1.989116   -0.799635
C      -0.332036   -1.927138    0.711610
C      -0.585268   -2.934330    1.777958
N       0.829889   -0.926637    0.740833
C      -1.215138   -0.977069   -0.064385
C      -2.697245   -0.803927   -0.119923
H       1.109898    1.818388    0.161186
H      -0.397099    2.027575   -0.753236
H      -0.442648    1.841621    1.011387
H       1.748530   -0.840037   -1.343372
H      -0.597397   -2.776362   -1.484754
H       0.264937   -3.617797    1.881016
H      -0.747199   -2.447755    2.746515
H      -1.473281   -3.530716    1.542859
H      -3.068605   -0.212380    0.725308
H      -3.012619   -0.302549   -1.042702
H      -3.201195   -1.776370   -0.086956
