18

O      -0.083923    1.386615    0.022150
C       0.020690   -0.035551    0.002507
C       0.660681   -0.617888    1.300227
C      -0.109131   -1.930682    1.538832
N      -1.447899   -1.796270    0.925121
C      -2.140634   -0.552623    1.290843
C      -1.385795   -0.640805    0.016783
C       0.750256   -0.478176   -1.191687
C       1.372642   -0.819069   -2.162399
H       0.767222    1.746980   -0.249304
H       1.736592   -0.770854    1.199417
H       0.498381    0.110712    2.098491
H       0.389616   -2.766337    1.037351
H      -0.203445   -2.185844    2.598766
H      -3.224037   -0.618653    1.268341
H      -1.743691    0.067959    2.089162
H      -1.900391   -0.721730   -0.934695
H       1.911699   -1.124878   -3.025167
