19

C      -0.008884    1.511301    0.072853
C       0.035407   -0.019297   -0.043172
C       0.792315   -0.475958   -1.291022
N       0.635054   -0.668856    1.130220
C      -0.052155   -0.664212    2.326952
C      -1.367879   -0.404997    2.669452
N      -1.524834   -0.637272    4.005088
N      -0.403158   -1.017772    4.523384
N       0.507733   -1.038706    3.504642
H       1.005861    1.926022    0.093185
H      -0.533008    1.950021   -0.782087
H      -0.523064    1.822289    0.985944
H      -0.990832   -0.400413   -0.103778
H       1.837185   -0.143020   -1.256003
H       0.783669   -1.565457   -1.376205
H       0.342379   -0.048887   -2.191415
H       1.624445   -0.474576    1.220407
H      -2.184984   -0.074439    2.051427
H       1.448465   -1.346343    3.688721
