18

O       0.109310    0.017404    0.187225
C       0.016774    1.202885    0.001215
C      -1.281228    2.000702   -0.217862
C      -0.801325    3.280830   -0.889916
C      -1.302451    3.704376   -2.241265
C      -1.620086    4.529819   -1.011712
N       0.646728    3.450264   -0.675987
C       1.025182    3.398288    0.729625
C       1.152312    2.174862   -0.126614
H      -1.972815    1.416728   -0.828285
H      -1.769058    2.167731    0.750390
H      -0.568472    4.101324   -2.932760
H      -2.100359    3.126166   -2.695158
H      -2.634022    4.516113   -0.626161
H      -1.102442    5.475745   -0.896765
H       1.930679    3.940278    0.984271
H       0.248360    3.422564    1.489833
H       2.123474    1.810199   -0.441513
