18

O      -0.024117    0.017352    0.065981
C      -0.038450    1.213121    0.003500
C      -1.117746    2.295955    0.094892
C      -0.015060    3.154440    0.797053
C       1.036424    2.314939   -0.005384
C       1.121928    2.922413   -1.402972
C       0.684611    2.152556   -2.599200
N      -0.155273    3.227224   -2.062598
C      -1.376483    2.869724   -1.322304
H      -2.053771    2.073063    0.610107
H      -0.031443    4.227780    0.595665
H       0.033185    2.970076    1.871636
H       2.017859    2.099747    0.419509
H       1.883533    3.693035   -1.511484
H       1.117816    2.357852   -3.574681
H       0.379672    1.118563   -2.449858
H      -1.968543    2.164349   -1.915993
H      -1.972918    3.783026   -1.209549
