14

C      -0.027486    1.507479    0.038696
C      -0.009809    0.009958    0.028331
C      -0.028122   -0.802255   -1.057708
O      -0.002718   -2.121426   -0.687609
C       0.032529   -2.152384    0.653883
C       0.030555   -0.883562    1.167897
C       0.063384   -0.547185    2.590755
O       0.096893   -1.360025    3.489474
H       0.863075    1.918236    0.526763
H      -0.060576    1.902653   -0.979943
H      -0.899097    1.897101    0.575806
H      -0.057884   -0.617911   -2.118879
H       0.056267   -3.123500    1.119721
H       0.055533    0.542948    2.811547
