19

O       0.288358    1.205822   -0.193616
C       0.019800   -0.150855   -0.035633
C      -0.519770   -0.624412    1.288558
O      -0.885892    0.405288    2.183789
C      -1.398335   -0.710400    0.058940
C      -2.662797    0.106632   -0.007934
O      -3.513519   -0.075203    1.096776
C      -2.727423    1.450861   -0.703912
C      -3.397669    0.234745   -1.307369
H      -0.199369    1.664221    0.503708
H       0.758650   -0.750975   -0.556373
H      -0.163965   -1.535229    1.764427
H      -0.124707    0.611509    2.737351
H      -1.505799   -1.722340   -0.325097
H      -3.022999    0.234509    1.868606
H      -3.371266    2.191289   -0.242346
H      -1.837553    1.834970   -1.185298
H      -2.955848   -0.205184   -2.194907
H      -4.478129    0.171450   -1.250510
