18

C       0.020378    1.573635    0.027136
C       0.039987    0.070807    0.073628
C      -1.223453   -0.792057    0.247210
N      -0.392612   -1.887827    0.846872
C       0.890742   -1.860213    0.068392
C       0.667873   -0.892242    1.164314
C       0.843643   -0.755836   -0.998230
C       0.264493   -0.993445   -2.307843
C      -0.222209   -1.179560   -3.392287
H       1.033193    1.990580    0.033264
H      -0.478199    1.921386   -0.884882
H      -0.519978    1.988933    0.884552
H      -1.892946   -0.408466    1.022070
H      -1.793626   -1.064978   -0.646825
H       1.468183   -2.774686    0.052200
H       1.117115   -0.755030    2.138944
H       1.846759   -0.326811   -1.097770
H      -0.648346   -1.351395   -4.349720
