18

C      -0.310845    1.434209    0.044460
C       0.048615   -0.040762   -0.057847
C       1.368031   -0.402850   -0.784699
O       1.929921   -0.971321    0.428983
C       0.743935   -0.684276    1.141802
C       0.745151   -0.332404    2.581601
C       0.183596   -1.691896    2.135758
C      -1.228226   -1.926520    2.163973
N      -2.374946   -2.087596    2.151624
H       0.537829    2.026403    0.402347
H      -0.610913    1.826489   -0.932619
H      -1.148167    1.587964    0.732686
H      -0.809408   -0.621939   -0.404686
H       1.292423   -1.150119   -1.580906
H       1.959602    0.450624   -1.133626
H       1.693443   -0.364198    3.106487
H       0.038648    0.408642    2.938861
H       0.808048   -2.557592    2.329092
