22

C       0.339524    1.265197    0.425042
C      -0.407604    0.147328   -0.315282
C       0.415690   -0.452403   -1.453090
C       0.407989    0.407303   -2.706560
O       1.710276   -0.963047   -1.073793
C       0.719772   -1.907245   -1.520829
C       0.236697   -2.876219   -0.455839
C       1.019320   -2.601390   -2.837251
H       1.278675    0.882978    0.834054
H       0.579245    2.105890   -0.233744
H      -0.264712    1.654386    1.249883
H      -0.695325   -0.622011    0.404154
H      -1.342281    0.537247   -0.737831
H       1.195359    0.118700   -3.402414
H      -0.558596    0.339819   -3.218330
H       0.569899    1.458379   -2.446761
H       0.241567   -2.426525    0.536876
H      -0.774644   -3.234953   -0.677778
H       0.897315   -3.749652   -0.425233
H       1.801906   -3.353256   -2.686906
H       0.127805   -3.122421   -3.203895
H       1.358855   -1.915115   -3.611985
