20

C      -0.086342    1.539689    0.002551
C       0.028911    0.011348   -0.023143
C       0.631510   -0.476661   -1.349466
C       0.581043   -1.975757   -1.498390
C       1.317616   -2.777482   -0.734283
C       2.275308   -2.249797    0.303596
C       1.660479   -1.431717    1.443040
O       1.994920   -1.638513    2.596654
N       0.786136   -0.411928    1.160669
H       0.898053    2.004526   -0.112417
H      -0.735816    1.888742   -0.805834
H      -0.516522    1.886831    0.948132
H      -0.986834   -0.409902    0.043390
H       0.073009    0.004396   -2.157552
H       1.665854   -0.111378   -1.423289
H      -0.099857   -2.392724   -2.234785
H       1.247459   -3.855881   -0.841484
H       2.815934   -3.057233    0.797189
H       3.030651   -1.609948   -0.176250
H       0.478706    0.020478    2.022666
