19

C       0.129267    1.613621   -0.133824
C      -0.080062    0.097437    0.032093
C       0.583944   -0.451650    1.208368
C       1.137594   -0.892851    2.183151
C       1.801925   -1.406872    3.366202
O       0.924105   -1.552217    4.519088
C       0.958777   -2.991685    4.433415
C       2.100207   -2.937229    3.395849
O       1.935065   -3.595314    2.172314
H       1.192204    1.850944   -0.230365
H      -0.387494    1.974413   -1.028210
H      -0.259750    2.156053    0.732036
H      -1.154002   -0.121795    0.090131
H       0.284163   -0.425351   -0.861770
H       2.660629   -0.774248    3.622213
H       1.170249   -3.456208    5.403069
H       0.032325   -3.405358    4.013843
H       3.083171   -3.138398    3.838605
H       2.298704   -4.482264    2.249346
