19

C       0.229039    1.241411    0.212741
O      -0.277212    0.002964   -0.253185
C       0.518961   -0.581993   -1.241350
C       1.765460   -1.422539   -0.846310
O       2.912606   -0.866232   -0.315156
C       0.802608   -2.470328   -0.205181
C       0.175229   -2.057418   -1.582472
O      -0.968162   -2.539096   -2.179966
C       1.583029   -2.168947   -2.208948
H       1.212648    1.124207    0.684625
H       0.319761    1.969756   -0.607459
H      -0.483133    1.624781    0.947298
H       0.660143    0.096608   -2.095589
H       3.522544   -1.576018   -0.086638
H       1.173517   -3.496780   -0.140898
H       0.268895   -2.156643    0.691180
H      -1.720693   -2.244756   -1.654271
H       1.766150   -1.593813   -3.120339
H       1.998585   -3.177258   -2.266094
