18

C      -0.131950    1.571924   -0.027514
C       0.017871    0.086612    0.012284
C       0.475693   -0.921110   -0.972675
C       1.336632   -1.636163    0.074616
N       2.700610   -1.131184   -0.006164
C       0.518657   -0.850454    1.165398
N      -0.619250   -1.707447    1.528270
C      -1.350838   -1.704827    0.487364
N      -0.984267   -0.823870   -0.584520
H       0.835179    2.054998    0.144220
H      -0.511538    1.889746   -1.002619
H      -0.830267    1.918781    0.742010
H       0.683040   -0.837886   -2.033904
H       1.245016   -2.729597    0.146418
H       3.246097   -1.504293    0.765856
H       3.147172   -1.463010   -0.856605
H       1.070365   -0.458710    2.017329
H      -2.244483   -2.309803    0.371321
