15

C       0.008684    1.506006    0.010054
O       1.403968    1.883479   -0.001262
C       2.121377    0.742204   -0.014199
N       3.380834    0.573994   -0.027168
C       3.586605   -0.889274   -0.036980
C       2.177302   -1.608274   -0.027453
C       1.253694   -0.430549   -0.012243
C      -0.010271   -0.010497    0.002128
H      -0.460026    1.938025    0.903899
H      -0.476994    1.947513   -0.869991
H       4.168862   -1.167266   -0.922631
H       4.185534   -1.176682    0.834434
H       2.033852   -2.240172   -0.909213
H       2.050620   -2.249787    0.849918
H      -0.930641   -0.579124    0.007884
