13

C      -0.008546    1.512521   -0.048632
N       1.362543    2.007065    0.119031
C       2.344795    1.234697    0.261509
O       2.386265   -0.150888    0.294417
C       1.158753   -0.705097    0.146400
N       0.921733   -2.006030    0.141625
N      -0.403476   -2.028169   -0.029860
N      -1.022174   -0.855116   -0.133198
C      -0.024818    0.019224   -0.021201
H      -0.628026    1.947625    0.745562
H      -0.403308    1.913272   -0.990636
H       3.354811    1.613734    0.384803
H      -0.907321   -2.897809   -0.077850
