18

N       0.971364   -0.248532    0.095761
C      -0.196185    0.209524    0.319530
N      -1.318323   -0.491404   -0.104252
C      -1.082373   -1.761579   -0.800159
C      -2.361817   -2.280368   -1.438323
C      -3.485877   -2.126560   -0.433803
O      -3.659819   -0.741629   -0.113015
C      -2.583765    0.040783    0.160359
N      -2.723640    1.215682    0.623369
H       1.668140    0.388862    0.475851
H      -0.458751    1.134093    0.831617
H      -0.290172   -1.597611   -1.534306
H      -0.687757   -2.490366   -0.080738
H      -2.609316   -1.712249   -2.341623
H      -2.234419   -3.328405   -1.724451
H      -4.452276   -2.450492   -0.825668
H      -3.276201   -2.694066    0.483606
H      -3.710010    1.399394    0.789606
