22

O       0.237579    1.153708   -0.289230
C       0.226417   -0.221241    0.022510
C      -1.207092   -0.743817    0.164629
N      -1.928254   -0.392714   -1.056576
C      -2.433269   -1.354974   -2.029999
C      -2.645759   -2.805536   -1.620895
C      -3.552798   -2.776288   -0.361297
C      -4.205220   -1.369491   -0.324290
C      -3.369007   -0.490514   -1.241603
H      -0.452418    1.248174   -0.961983
H       0.749245   -0.813689   -0.748444
H       0.769906   -0.354674    0.964605
H      -1.182633   -1.819985    0.382717
H      -1.690655   -0.236684    1.007475
H      -2.172469   -1.148902   -3.065338
H      -3.140640   -3.321871   -2.451106
H      -1.705087   -3.338368   -1.440398
H      -4.306285   -3.567672   -0.392538
H      -2.965545   -2.948414    0.543712
H      -5.227141   -1.397216   -0.719650
H      -4.275496   -0.972350    0.694231
H      -3.836479    0.398684   -1.658748
