22

C       0.010562    1.601431    0.003314
C      -0.061436    0.076060   -0.101805
C       0.788362   -0.487239   -1.246956
O       2.164611   -0.122273   -1.106720
C       0.660928   -2.000183   -1.388523
C      -0.707802   -2.634853   -1.848798
C       0.032673   -3.264092   -3.033675
N       0.594023   -2.127872   -3.804347
C       1.319775   -2.645073   -2.618165
H       1.048290    1.930204    0.103199
H      -0.400765    2.075055   -0.894793
H      -0.554903    1.969304    0.864906
H       0.274708   -0.380615    0.842030
H      -1.101782   -0.243819   -0.238407
H       0.478792   -0.029650   -2.192962
H       2.477318   -0.492553   -0.273131
H       1.005992   -2.486973   -0.467544
H      -1.094373   -3.361052   -1.131074
H      -1.500829   -1.934938   -2.125555
H      -0.165830   -4.214481   -3.513493
H       1.056809   -2.517496   -4.625094
H       2.336232   -3.006293   -2.709987
