17

C       0.171127    1.489241   -0.063993
C      -0.055574    0.037415    0.190527
O       1.012195   -0.905001   -0.081182
C       0.412316   -0.939245    1.222538
C       1.311228   -0.750880    2.403533
O       2.098473   -1.903398    2.652369
C      -0.817507   -1.848437    1.068134
C      -1.329189   -0.800989    0.034268
O      -2.371731   -0.620801   -0.519888
H       1.135242    1.809949    0.338671
H       0.164461    1.690328   -1.140011
H      -0.623324    2.085848    0.393986
H       1.933664    0.142071    2.245817
H       0.712090   -0.590845    3.305713
H       2.632542   -2.058667    1.865236
H      -0.612433   -2.857079    0.706018
H      -1.481229   -1.889009    1.937221
