16

C       0.196202    1.366204   -0.308933
C      -0.062893   -0.097977   -0.009386
O       0.672481   -0.984664   -0.924560
C       1.507594   -1.426213    0.083334
N       2.557078   -2.106247    0.045830
C       0.751546   -0.723078    1.199021
N       1.449806    0.153403    2.092437
C      -1.487938   -0.426273   -0.022263
N      -2.615390   -0.678606    0.006040
H       1.269899    1.563886   -0.287118
H      -0.198605    1.629516   -1.293046
H      -0.282820    1.990481    0.449128
H       2.802606   -2.385408   -0.905184
H       0.116023   -1.423174    1.746254
H       1.399866   -0.166212    3.050168
H       2.427866    0.236151    1.841743
