13

N      -0.080964   -3.756830   -0.029196
C      -0.045049   -2.595720   -0.016539
C      -0.011919   -1.231615   -0.000047
C       0.011437   -0.023519    0.021315
C       0.017906    1.402437    0.035576
C       0.487048    2.157610    1.261635
C       1.345837    2.182989    0.020695
C       2.595873    1.477404   -0.003317
N       3.607570    0.918353   -0.026976
H      -0.774313    1.866971   -0.543947
H      -0.041710    3.066581    1.521422
H       0.842248    1.567780    2.097080
H       1.335530    3.091051   -0.572237
