20

C       0.042147    1.627444    0.133315
N       0.313581    0.197357    0.069053
C       0.310309   -0.515601   -1.102953
N      -0.116805   -1.866180   -0.962252
C      -0.641035   -2.526062    0.115400
C      -1.013941   -3.970806   -0.168375
O      -0.793874   -2.022006    1.220208
N       0.653239   -0.211692   -2.294083
C       1.298001    1.046283   -2.608330
H       0.870996    2.226768   -0.247856
H      -0.867146    1.909645   -0.413691
H      -0.100691    1.889349    1.183924
H      -0.064398   -0.343558    0.842499
H      -0.015087   -2.362666   -1.835149
H      -0.127064   -4.550301   -0.445129
H      -1.456545   -4.398987    0.730042
H      -1.727881   -4.037392   -0.995442
H       0.609664    1.902484   -2.611794
H       2.124085    1.285290   -1.922976
H       1.719661    0.975283   -3.615854
