18

C      -0.170062    1.522179    0.111977
N      -0.037578    0.078310    0.078368
C      -1.255287   -0.719171    0.358338
C      -0.396571   -1.607583    1.265464
O      -0.522134   -2.668473    1.795321
C       0.743325   -0.576629    1.158266
C       2.137469   -1.109244    0.798016
C       3.118747    0.016692    0.552359
O       3.996547    0.333042    1.313906
H       0.806747    1.992453   -0.036482
H      -0.824460    1.850762   -0.701209
H      -0.589802    1.897558    1.064036
H      -2.027219   -0.184211    0.936476
H      -1.725234   -1.187844   -0.512446
H       0.798052    0.027683    2.080721
H       2.504933   -1.727529    1.622017
H       2.052628   -1.717897   -0.109434
H       2.963123    0.567839   -0.402483
