15

O      -0.181148    1.384111   -0.121068
C      -0.053932    0.039285   -0.156600
C      -0.025937   -0.889644   -1.177059
C       0.134902   -2.119006   -0.500118
N       0.199403   -1.973154    0.815961
N       0.076933   -0.628927    1.014803
C       0.133236   -0.093616    2.350689
C       1.497373   -0.309299    3.005545
O       1.689322   -0.137052    4.177839
H      -0.275797    1.711870   -1.020608
H      -0.111021   -0.706019   -2.235510
H       0.204931   -3.107603   -0.930419
H      -0.064697    0.981324    2.303098
H      -0.634299   -0.552848    2.980685
H       2.299602   -0.627728    2.305490
