15

O      -0.931232    1.227292   -0.280296
C       0.169249    0.914760    0.109463
C       1.367801    1.780634   -0.016410
C       1.152368    3.299573   -0.006345
C       1.625721    2.630557   -1.256941
C       3.108952    2.601352   -1.438567
C       3.728909    1.894528   -0.482520
C       2.726543    1.285311    0.435831
O       2.925571    0.507424    1.340580
H       0.363535   -0.060619    0.599333
H       0.107952    3.590019    0.042458
H       1.853707    3.904209    0.557617
H       0.953466    2.566866   -2.104250
H       3.596475    3.140468   -2.242977
H       4.794240    1.758534   -0.353127
