16

O      -0.003803    1.375490   -0.095041
C       0.018721   -0.025980   -0.007060
C       0.989775   -0.569428   -0.971725
N       1.800612   -0.899060   -1.727219
C       0.025064   -0.642000    1.463694
C      -1.466771   -0.169696    1.524770
C      -1.440099   -0.622833    0.024811
C      -1.107147   -2.107647    0.179018
C      -0.152121   -2.118512    1.116905
H       0.902164    1.703600   -0.070710
H       0.776894   -0.343063    2.192888
H      -2.124445   -0.732530    2.188097
H      -1.581932    0.906474    1.655003
H      -2.177516   -0.303268   -0.709025
H      -1.536299   -2.920202   -0.388306
H       0.415570   -2.943768    1.521114
