19

C      -0.107537    1.479846   -0.062587
C       0.098347   -0.039985    0.024494
C       0.947241   -0.427573    1.235352
O      -1.158899   -0.689006    0.193196
C       0.741094   -0.557744   -1.274109
C       0.426711   -1.917971   -1.764627
O      -0.185784   -0.778171   -2.358718
C       2.040355    0.004346   -1.772223
O       2.818247    0.656746   -1.123790
H       0.846134    2.008187   -0.129138
H      -0.707339    1.736440   -0.943118
H      -0.642614    1.820876    0.827306
H       0.453538   -0.082617    2.148015
H       1.051467   -1.514687    1.295633
H       1.938158    0.024195    1.169802
H      -1.664114   -0.527027   -0.613767
H       1.134779   -2.447404   -2.400320
H      -0.224109   -2.527337   -1.144030
H       2.226667   -0.246503   -2.840146
