15

C      -0.027832    1.457739   -0.003514
N      -0.002594    0.005055    0.025577
C      -0.018344   -0.754009   -1.133658
O      -0.053218   -0.385537   -2.288119
N       0.014408   -2.079162   -0.664754
C       0.048666   -2.116151    0.700647
C       0.038550   -0.826388    1.149434
C       0.065464   -0.402837    2.531325
O       0.056329    0.747413    2.922867
H       0.861798    1.871932    0.475027
H      -0.056758    1.746723   -1.055147
H      -0.908242    1.842144    0.515326
H       0.011222   -2.862120   -1.295739
H       0.077495   -3.034028    1.264087
H       0.096819   -1.258777    3.240729
