21

C      -0.067374    1.548772    0.048049
C      -0.022972    0.047108   -0.026054
C      -0.036841   -0.613208   -1.186081
C       0.043296   -2.110982   -1.324410
C       0.475338   -2.805616   -0.017274
C      -0.270420   -2.178369    1.177642
C       0.047711   -0.683113    1.296282
C       0.184966   -4.287179   -0.090099
O       0.999100   -5.166843    0.021154
H       0.803557    1.943264    0.587956
H      -0.083952    2.003754   -0.945861
H      -0.953126    1.893315    0.597462
H      -0.103104   -0.051730   -2.116086
H      -0.932635   -2.506120   -1.650189
H       0.744146   -2.372804   -2.126860
H       1.555165   -2.689797    0.125465
H      -1.350675   -2.312562    1.034323
H      -0.005665   -2.695724    2.105940
H       1.048303   -0.545004    1.732766
H      -0.644657   -0.216016    2.009064
H      -0.894816   -4.524601   -0.256855
