23

C      -0.409756    1.297406   -0.336301
C      -0.117664   -0.172405   -0.016189
C       0.793648   -0.421844    1.205139
C       0.104695   -0.175707    2.550539
O      -0.191579    1.194404    2.709084
C      -0.823373    1.477213    3.935164
C       1.339865   -1.866905    1.182118
C       2.312541   -2.096134    0.047232
O       2.250110   -2.992914   -0.753045
H       0.518881    1.848442   -0.522986
H      -1.027902    1.376506   -1.236346
H      -0.925287    1.790975    0.488157
H      -1.060062   -0.716053    0.138531
H       0.346643   -0.637130   -0.895211
H       1.648701    0.268030    1.154352
H      -0.818738   -0.779135    2.615946
H       0.763147   -0.509761    3.371669
H      -0.193698    1.190217    4.792417
H      -1.000591    2.554601    3.971814
H      -1.787850    0.953562    4.029246
H       1.892742   -2.063741    2.112710
H       0.534497   -2.604662    1.106968
H       3.138234   -1.345826    0.002075
