13

O      -0.012100   -0.001474    0.001582
C      -0.007346    1.199455    0.008769
C       1.316883    1.989988   -0.000683
O       2.396103    1.431196   -0.015558
C       1.201761    3.445220    0.009174
N       0.094141    4.178977    0.025361
C       0.514385    5.472224    0.028549
C       1.897308    5.531674    0.014104
N       2.315425    4.237955    0.001923
H      -0.929111    1.810345    0.022273
H      -0.181634    6.297024    0.040898
H       2.585479    6.360862    0.011663
H       3.257896    3.879149   -0.010315
