20

C       0.070205    1.555950   -0.068357
C       0.022340    0.037301    0.124690
C      -1.392321   -0.559926    0.018142
C      -2.120794   -0.533497   -1.389445
C      -2.271744   -2.056823   -1.328766
C      -0.922623   -2.703482   -1.229943
C      -1.531285   -2.104096    0.007314
C      -2.257456    0.012958    1.049065
N      -2.931893    0.465525    1.872610
H       1.098535    1.920391    0.008537
H      -0.312484    1.845600   -1.052876
H      -0.527846    2.071913    0.688649
H       0.653029   -0.451685   -0.624733
H       0.437313   -0.228856    1.104071
H      -3.064876    0.010363   -1.357265
H      -1.513672   -0.145485   -2.213573
H      -3.155684   -2.603543   -1.630016
H      -0.921934   -3.788633   -1.241240
H      -0.057407   -2.257956   -1.713550
H      -1.741242   -2.693295    0.890911
