15

C       0.031853    1.524125    0.029578
C      -0.092335    0.039981    0.120080
C      -1.335848   -0.843169   -0.092076
C      -0.731614   -1.804016    0.971192
O      -1.141056   -2.755828    1.558565
C       0.510811   -0.909478    1.121425
O       1.012064   -0.778851   -0.240978
C       1.388718   -0.720601    2.217327
C       2.096750   -0.584039    3.179671
H       0.998147    1.847451    0.423821
H      -0.044654    1.851355   -1.012915
H      -0.766214    2.011784    0.597190
H      -2.276213   -0.419024    0.273434
H      -1.466724   -1.231201   -1.104048
H       2.728737   -0.465514    4.025257
