23

C       0.627687    1.327571    0.372483
C      -0.093447    0.023032    0.056745
C      -1.548745    0.061382    0.504969
C       0.157132   -0.560319   -1.358589
C       0.892996   -1.707363   -0.632978
C       0.296600   -3.100984   -0.752351
C       2.416551   -1.724501   -0.796612
O       3.020412   -2.384498    0.297210
O       0.594111   -1.114654    0.670296
H       1.673470    1.288186    0.056369
H       0.145595    2.168444   -0.138177
H       0.603744    1.523449    1.449521
H      -2.090638    0.863527   -0.007922
H      -2.049513   -0.886353    0.290258
H      -1.609453    0.241896    1.583204
H      -0.744054   -0.861434   -1.896199
H       0.779548    0.053125   -2.014382
H       0.414007   -3.477862   -1.774604
H       0.812368   -3.785013   -0.073067
H      -0.768232   -3.094343   -0.505527
H       2.703286   -2.267740   -1.704358
H       2.787367   -0.691577   -0.893163
H       2.634055   -1.973905    1.082485
