21

C      -0.224807    1.505774   -0.153896
C       0.009765    0.006100   -0.028449
C       1.316196   -0.516192   -0.668933
O       1.909764   -0.752009    0.624118
C       0.634509   -0.522923    1.295105
C       0.801762    0.344665    2.507837
C       0.174307   -0.065596    3.830186
C       1.647642   -0.233405    3.620181
O       2.133354   -1.536037    3.482672
H       0.679267    2.075903    0.083689
H      -0.516423    1.761412   -1.178136
H      -1.023496    1.843268    0.514587
H      -0.889058   -0.538845   -0.327924
H       1.209275   -1.443560   -1.247183
H       1.893963    0.206911   -1.257455
H       0.202688   -1.487832    1.588798
H       0.920051    1.406758    2.320780
H      -0.174276    0.711606    4.500777
H      -0.417368   -0.974773    3.835504
H       2.314741    0.450143    4.144817
H       2.636144   -1.567054    2.658683
