21

C      -0.033419    1.529871   -0.049424
C      -0.003100    0.074042   -0.035680
C       0.031648   -1.129559   -0.025835
C       0.038474   -2.588341   -0.008933
C      -1.379536   -3.183497    0.113030
C      -1.412459   -4.729215    0.036423
C      -0.682724   -5.409219    1.213532
C      -2.796352   -5.195458   -0.043453
C      -3.938886   -5.567350   -0.088440
H       0.565592    1.950004    0.766285
H       0.363314    1.928867   -0.989697
H      -1.055593    1.908115    0.063653
H       0.510575   -2.966097   -0.926833
H       0.666827   -2.938064    0.819301
H      -1.834042   -2.858320    1.055237
H      -2.001821   -2.777313   -0.689754
H      -0.905175   -5.027076   -0.893162
H       0.378039   -5.144514    1.226190
H      -1.126931   -5.106343    2.166784
H      -0.759100   -6.496653    1.135872
H      -4.945713   -5.900509   -0.138832
