20

C      -0.101742    1.548324   -0.025277
C      -0.063531    0.026759    0.053734
C      -1.396329   -0.570770   -0.377642
N       1.159048   -0.598550   -0.648719
C       2.071132   -0.260812    0.557308
C       2.602267   -1.693159    0.623044
C       1.110424   -1.821136    0.312048
C       0.694942   -0.635071    1.218429
O       0.363062   -0.762359    2.557599
H       0.831733    2.012763    0.302398
H      -0.290302    1.868568   -1.055471
H      -0.912045    1.944876    0.596709
H      -1.627870   -0.278911   -1.407554
H      -1.404646   -1.661633   -0.326088
H      -2.203283   -0.202012    0.264408
H       2.619605    0.680299    0.595199
H       3.288365   -1.990345   -0.173897
H       2.929498   -2.051647    1.600922
H       0.532677   -2.708504    0.056752
H       0.324981    0.116715    2.950954
