18

C      -0.004765    1.536721    0.068807
C      -0.024662    0.003932    0.033096
O       0.658887   -0.557130    1.147775
C      -1.422139   -0.533735   -0.065494
N      -2.007253   -1.122288   -1.056849
C      -3.297679   -1.404018   -0.601262
C      -4.302764   -2.092369   -1.460493
C      -3.404598   -0.957091    0.672192
O      -2.209296   -0.389536    1.033277
H       1.027216    1.885807    0.156055
H      -0.446277    1.955039   -0.840858
H      -0.575191    1.909109    0.926449
H       0.507185   -0.353246   -0.852274
H       0.157011   -0.330836    1.939047
H      -3.938476   -3.076428   -1.773378
H      -5.248366   -2.227729   -0.929361
H      -4.497691   -1.515818   -2.370824
H      -4.181683   -0.958218    1.416930
