15

C      -0.129554    1.408846   -0.320913
C       0.081078   -0.059103   -0.007441
O       1.177745   -0.566562    0.008759
C      -1.178998   -0.865818    0.317059
C      -1.006812   -2.346603    0.087161
C      -2.158446   -3.235006   -0.100427
O      -1.362392   -2.825253   -1.213277
H       0.830767    1.922653   -0.375989
H      -0.649059    1.504530   -1.281937
H      -0.768911    1.881600    0.432874
H      -1.405934   -0.672872    1.376626
H      -2.033978   -0.491814   -0.256107
H      -0.079922   -2.763249    0.476332
H      -2.081369   -4.286820    0.171573
H      -3.167406   -2.823857   -0.070798
