12

N       0.010780    1.313511   -0.096944
C      -0.053779   -0.031771   -0.009321
N      -1.181599   -0.673753    0.065370
C      -1.100079   -2.045537    0.164284
C       0.065591   -2.710041    0.181963
O       1.258668   -2.042152    0.098056
C       1.284790   -0.689626   -0.003021
O       2.330004   -0.092717   -0.083607
H       0.913866    1.742606   -0.204054
H      -0.835372    1.851369   -0.161119
H      -2.036579   -2.586329    0.229507
H       0.200724   -3.778921    0.258131
