16

C       0.026754    1.498216    0.037347
C      -0.026946    0.007796   -0.034982
C      -0.069116   -0.799587   -1.107436
C      -0.035148   -2.248847   -0.739806
C       1.241612   -2.690133   -0.057859
C       0.027627   -2.276422    0.763654
C      -0.017767   -0.831535    1.206811
O      -0.059009   -0.420051    2.344339
H       0.952223    1.831947    0.520482
H      -0.032030    1.955116   -0.953736
H      -0.794301    1.881715    0.652294
H      -0.069175   -0.466246   -2.140126
H      -0.610376   -2.970430   -1.307541
H       1.482800   -3.748431   -0.054696
H       2.097494   -2.024875   -0.098458
H      -0.465428   -3.024747    1.369989
