20

C      -0.045774    1.568338   -0.160254
C      -0.018015    0.029996   -0.058119
O       0.604130   -0.365277    1.159957
C      -1.444577   -0.581454   -0.097194
N      -2.141128   -0.251111    1.142764
C      -3.182077    0.773322    1.096067
C      -3.535791   -0.663805    1.248788
C       0.756043   -0.525169   -1.174682
C       1.355471   -0.964730   -2.118493
H       0.975346    1.951148   -0.103582
H      -0.492496    1.897986   -1.103390
H      -0.618500    1.987434    0.671597
H      -0.113216   -0.344906    1.812317
H      -1.982499   -0.247792   -0.998175
H      -1.339563   -1.669410   -0.145173
H      -3.225185    1.444725    1.948579
H      -3.388431    1.240376    0.135112
H      -3.980646   -1.161332    0.389226
H      -3.840167   -1.058988    2.213536
H       1.900701   -1.357594   -2.940873
