16

O       0.070825    1.320071    0.119664
C       0.063575   -0.055926   -0.025404
C       0.636629   -0.930487   -1.160047
C       0.096326   -1.930855   -0.112672
C       0.529486   -1.025672    1.094979
C      -0.865701   -1.101671    1.756289
C      -1.140646   -1.059470    0.238766
O      -2.340543   -1.145794   -0.444894
H      -0.363918    1.705805   -0.648810
H       0.113572   -0.904055   -2.120743
H       1.721498   -0.903993   -1.300666
H       0.121097   -3.017968   -0.124156
H       1.511825   -1.027412    1.561406
H      -1.113919   -2.032679    2.274965
H      -1.173199   -0.229850    2.341641
H      -2.920954   -0.447308   -0.123141
