19

C       0.006500    1.549591   -0.048096
C       0.037427    0.042206    0.005340
C       0.489218   -0.730908   -1.230819
O       0.348592   -2.095198   -0.785331
C      -0.122661   -1.921763    0.540535
C       0.716399   -0.770865    1.181164
C      -0.106010   -0.385832    2.401884
O      -1.440454   -0.404775    1.842070
C      -1.194041   -0.798558    0.499913
H       1.014457    1.968628   -0.144435
H      -0.580580    1.898130   -0.905362
H      -0.451836    1.963896    0.854322
H      -0.149801   -0.550833   -2.105127
H       1.531154   -0.531671   -1.513701
H      -0.286202   -2.882572    1.026323
H       1.800013   -0.842934    1.277853
H      -0.032890   -1.110361    3.222228
H       0.121072    0.611875    2.796168
H      -2.126608   -0.879642   -0.057792
