16

O      -0.198453    1.434633    0.227176
C      -0.014459    0.054650    0.087182
C      -0.676789   -0.876348    1.075291
C      -1.227022   -0.712503   -0.343536
N      -2.426567    0.023728   -0.613929
C      -3.631595   -0.595316   -0.079674
C      -4.815253    0.220848   -0.364451
N      -5.748983    0.870343   -0.564840
H       0.260204    1.722741    1.022909
H       0.946750   -0.235314   -0.334083
H      -0.175406   -1.798384    1.349360
H      -1.238276   -0.401785    1.874169
H      -1.061317   -1.545398   -1.022991
H      -2.323626    0.978771   -0.287651
H      -3.769451   -1.575494   -0.553619
H      -3.599746   -0.781226    1.009130
