21

C       0.024713    1.453498    0.300251
C       0.345131   -0.039257    0.178167
C       0.666555   -0.509840   -1.258535
C       1.968786    0.096457   -1.795720
C       0.640448   -2.047794   -1.311311
C       1.582649   -2.862960   -2.139271
N       1.701234   -2.864512   -0.678694
C      -0.691612   -2.595341   -1.114550
N      -1.768367   -2.996950   -0.988063
H       0.879075    2.086900    0.042922
H      -0.808435    1.732497   -0.354274
H      -0.264541    1.699888    1.326109
H       1.187848   -0.292694    0.835306
H      -0.511384   -0.613824    0.547983
H      -0.151241   -0.171476   -1.908752
H       2.847332   -0.252786   -1.239476
H       2.119593   -0.132103   -2.853842
H       1.944929    1.184220   -1.700605
H       1.234927   -3.797167   -2.569005
H       2.322621   -2.332893   -2.729012
H       2.459499   -2.251556   -0.386655
