19

C      -0.275110    1.381625    0.004726
N       0.034353   -0.037677    0.085476
C       1.400429   -0.445216   -0.219666
C       0.875071   -0.554287    1.171430
C       1.433199    0.295348    2.294277
C       0.420418    0.481913    3.446892
C       0.967475    1.242080    4.563515
C       1.446566    1.872269    5.468124
H       0.550883    2.054405    0.284606
H      -0.556310    1.615849   -1.027106
H      -1.134488    1.606698    0.645175
H       1.513780   -1.324924   -0.848380
H       2.134364    0.340001   -0.404343
H       0.548283   -1.540590    1.504165
H       2.330747   -0.193447    2.690749
H       1.754481    1.275302    1.931267
H      -0.479298    0.981897    3.067483
H       0.090397   -0.503735    3.800663
H       1.856535    2.426743    6.275314
