19

C      -0.247890    1.188808    0.270233
O      -0.080651   -0.194008    0.003944
C       0.630482   -0.530677   -1.186402
C       2.027200    0.084958   -1.267889
C       0.715140   -2.076255   -1.164822
C      -0.619529   -2.784464   -1.013106
O      -0.992547   -3.670480   -1.739624
C      -0.233929   -0.119227   -2.389784
O       0.178130    0.404055   -3.389721
H       0.694802    1.670597    0.557713
H      -0.669805    1.732182   -0.586985
H      -0.947254    1.258831    1.106092
H       2.605401   -0.178977   -0.378226
H       2.545695   -0.287583   -2.153852
H       1.983199    1.172647   -1.356360
H       1.213556   -2.450763   -2.062232
H       1.321372   -2.341176   -0.287707
H      -1.231542   -2.441756   -0.154287
H      -1.314132   -0.355139   -2.250080
