15

C       0.058233    1.418074    0.079961
N      -0.007344   -0.029482    0.123470
C      -1.148758   -0.602570    0.063165
C      -1.165482   -2.068159    0.111994
N      -2.203552   -2.811480    0.066288
O      -3.436848   -2.114832   -0.047738
C      -3.416906   -0.759006   -0.095255
N      -4.674910   -0.279253   -0.246991
N      -2.390934    0.015340   -0.039585
H       0.698045    1.716683   -0.759509
H      -0.913676    1.913356   -0.015352
H       0.556166    1.776264    0.989549
H      -0.221924   -2.598424    0.197899
H      -5.449202   -0.891388   -0.052518
H      -4.795986    0.709688   -0.107113
