14

C       0.031143    1.442983   -0.060575
N      -0.083236   -0.000456   -0.094620
C      -1.246749   -0.653183    0.202914
O      -2.280523   -0.090252    0.519784
C      -1.135941   -2.100949    0.105232
C      -1.096381   -3.303778    0.038821
C      -1.061059   -4.754925   -0.037761
H       0.782319    1.766844    0.668702
H       0.300868    1.845399   -1.043601
H      -0.942121    1.838802    0.231197
H       0.716078   -0.558509   -0.345192
H      -2.036156   -5.186812    0.210430
H      -0.791101   -5.089229   -1.045378
H      -0.322813   -5.167605    0.658392
