17

O      -0.073802    1.424994    0.042275
C       0.021743    0.053367    0.010037
C      -1.238645   -0.872401    0.013199
C      -0.742283   -1.521490   -1.303019
C       0.652832   -0.843090   -1.142875
C       1.491221   -1.521697   -0.052538
O       2.490341   -2.183866   -0.085997
C       0.694951   -0.892775    1.097536
C      -0.693723   -1.578771    1.279781
H       0.813243    1.803333    0.034615
H      -2.262262   -0.501302    0.040674
H      -0.766742   -2.612749   -1.375410
H      -1.261026   -1.097992   -2.166776
H       1.166085   -0.488136   -2.037023
H       1.241740   -0.577362    1.986616
H      -1.179288   -1.194395    2.180338
H      -0.716353   -2.672186    1.304614
