14

O       0.011226    0.186141    0.782263
C      -0.002178    1.209348    0.159590
C      -1.294725    1.974286   -0.084678
C      -1.158357    3.244032   -0.883634
C       0.027865    3.652711   -1.337836
C       1.285147    2.895635   -1.092405
O       1.161828    1.691709   -0.335871
C      -2.348362    3.993582   -1.136160
N      -3.333356    4.573726   -1.320591
H      -1.988191    1.279692   -0.572170
H      -1.734604    2.177704    0.898241
H       0.124565    4.567421   -1.913142
H       1.751328    2.625966   -2.050028
H       2.007676    3.533168   -0.564586
