20

O       0.214822    1.122247    0.070720
C       0.097554   -0.293115    0.003152
C      -1.390125   -0.621736    0.007119
C      -1.689947   -2.129369   -0.001706
C      -3.186521   -2.413900    0.122846
O      -3.808547   -1.946957   -1.070264
N      -1.200219   -2.793042   -1.206642
C      -0.055695   -3.517357   -1.251098
O       0.720909   -3.659872   -0.327182
H       1.150225    1.343317    0.046656
H       0.569704   -0.687910   -0.908013
H       0.591598   -0.779545    0.858186
H      -1.835710   -0.180875    0.907183
H      -1.871847   -0.142469   -0.851233
H      -1.174971   -2.605320    0.838714
H      -3.341308   -3.495187    0.249438
H      -3.586188   -1.901526    1.009920
H      -4.740312   -2.181115   -1.043924
H      -1.792544   -2.741763   -2.021529
H       0.103034   -3.976523   -2.247424
