20

C       0.429114    1.365563    0.313789
C      -0.317117    0.134451   -0.232140
C       0.293456   -0.418347   -1.437392
C       0.810455   -0.844465   -2.438916
C       1.438499   -1.389974   -3.637096
C       2.034483   -2.787887   -3.404126
C       2.751945   -3.312721   -4.646411
N       3.083767   -4.636745   -4.594736
O       3.010126   -2.614870   -5.608039
H       1.462616    1.112858    0.566077
H       0.451281    2.166785   -0.429853
H      -0.063636    1.743914    1.214621
H      -0.359602   -0.640186    0.544788
H      -1.360461    0.403868   -0.442088
H       0.712617   -1.441467   -4.456997
H       2.233204   -0.726851   -3.994728
H       2.753564   -2.751185   -2.576372
H       1.252620   -3.492189   -3.098243
H       2.937615   -5.194724   -3.772046
H       3.631459   -5.019340   -5.347885
