15

C      -0.037938    1.575132   -0.068731
C       1.513576    1.319642    0.012827
N       1.141959    0.227849    0.988225
C      -0.031204    0.008300    0.054458
C       0.657544   -0.373194   -1.263889
C       1.686526    0.516603   -1.273255
O       2.418648    0.445368   -2.370268
N       1.852127   -0.582034   -3.175291
C       0.805542   -1.033093   -2.499922
H      -0.417864    2.070969    0.826240
H      -0.435678    2.012508   -0.984395
H       2.238885    2.070867    0.316034
H       1.802340   -0.550890    0.964969
H      -0.878656   -0.560556    0.430356
H       0.225742   -1.826621   -2.950565
