17

C      -0.009016    1.403365   -0.115124
N      -0.001151   -0.032683   -0.014082
C      -1.083982   -1.023610   -0.016025
C       0.015364   -2.128943    0.016499
C       0.092372   -2.992164    1.265941
O      -0.002390   -2.899777   -1.169226
C       1.020172   -0.941380   -0.048619
O       2.218564   -0.833427   -0.135964
H       1.030009    1.740499   -0.138747
H      -0.510758    1.739044   -1.031275
H      -0.511938    1.863316    0.743924
H      -1.741114   -0.971796    0.858901
H      -1.676088   -1.036181   -0.936351
H      -0.724112   -3.720488    1.272188
H       1.042150   -3.536696    1.287151
H       0.033926   -2.384555    2.174467
H       0.901220   -3.196212   -1.329871
