21

C       0.109810    1.493425   -0.055667
C       0.032895   -0.026918    0.079010
O       0.680096   -0.476189    1.270151
C      -1.397633   -0.555277    0.022564
C      -2.207608   -0.454727   -1.323594
C      -2.339815   -1.990158   -1.307360
C      -3.417606   -2.837371   -1.899330
O      -0.994968   -2.498356   -1.312526
C      -1.559411   -2.082758   -0.059855
H       1.149640    1.826254    0.004615
H      -0.308758    1.833631   -1.008055
H      -0.453766    1.984574    0.748660
H       0.596775   -0.496940   -0.733748
H       0.265587   -0.025077    2.014305
H      -1.981514   -0.141048    0.854502
H      -3.157049    0.073644   -1.208101
H      -1.672293   -0.055841   -2.189714
H      -3.379929   -2.806104   -2.994377
H      -3.300758   -3.877976   -1.585141
H      -4.406134   -2.484075   -1.588119
H      -1.571398   -2.813570    0.740732
