20

C      -0.045151    1.459018   -0.004483
N       0.044663    0.010884    0.106827
C      -1.234510   -0.701305    0.079872
C      -1.111625   -2.196099    0.374884
C       0.056154   -2.808308   -0.398038
C       1.335980   -2.116947    0.058173
O       2.455665   -2.576595   -0.649558
C       1.253807   -0.587924   -0.078983
O       2.286681    0.031627   -0.308137
H       0.961716    1.871875    0.016877
H      -0.531581    1.753028   -0.944191
H      -0.632921    1.862422    0.827426
H      -1.902722   -0.224632    0.807431
H      -1.695887   -0.554207   -0.909822
H      -0.957471   -2.348209    1.450206
H      -2.059407   -2.678995    0.118867
H       0.133769   -3.885277   -0.222570
H      -0.067782   -2.663045   -1.478167
H       1.458275   -2.308843    1.141736
H       3.029318   -1.796659   -0.728261
