17

O       0.012668    1.358554    0.008441
C       0.033473   -0.021624    0.046175
C       0.654013   -0.954830    1.151927
C      -0.041330   -1.887848    0.143703
C      -0.485743   -3.228752   -0.389001
O      -1.192136   -2.767066   -1.571310
C      -1.056220   -1.325076   -1.545278
C      -1.237598   -0.888161   -0.085180
C       0.381187   -1.022016   -1.100352
H       0.918550    1.678039   -0.065013
H       1.746223   -1.010561    1.204944
H       0.215250   -0.888798    2.151770
H       0.333555   -3.894444   -0.682782
H      -1.175976   -3.770477    0.267298
H      -1.567918   -0.913834   -2.413462
H      -2.133384   -0.852354    0.534915
H       1.323833   -1.140093   -1.636727
