19

C       0.012928    1.393811    0.069255
C       1.477349    1.918615   -0.017968
C       2.222815    0.683037    0.453991
O       3.577840    0.527825    0.097358
C       3.996856   -0.757190    0.561863
C       3.089331   -1.892886    0.059320
O       1.709308   -1.663924    0.355319
C       1.380193   -0.413036   -0.181087
O       0.061671   -0.051521    0.096466
H      -0.486746    1.724881    0.985204
H      -0.588512    1.720968   -0.785929
H       1.755829    2.157827   -1.048783
H       1.639020    2.805299    0.597262
H       2.107412    0.572102    1.545829
H       5.017027   -0.909168    0.198258
H       4.011040   -0.762528    1.663204
H       3.219858   -2.009807   -1.028161
H       3.362417   -2.832573    0.546402
H       1.568314   -0.434281   -1.276072
