18

C       0.006988    1.481932   -0.062479
C      -0.047813   -0.017161    0.003518
O       0.210886   -0.681021   -1.253515
C      -0.678039   -1.757432   -0.836077
C       0.165789   -2.783956   -0.091886
N       0.474652   -2.166425    1.213841
C      -0.654244   -1.350859    1.630585
C       0.642298   -0.703174    1.222779
C      -1.298355   -0.878807    0.301218
H       1.026671    1.812537   -0.290280
H      -0.658742    1.856820   -0.844769
H      -0.287366    1.921397    0.895848
H      -1.292793   -2.126407   -1.659801
H      -0.380472   -3.714109    0.101803
H       1.083449   -3.012000   -0.639601
H      -1.117560   -1.488593    2.599658
H       1.456017   -0.298740    1.816361
H      -2.316651   -0.506667    0.232061
