20

C       0.195374    1.314264    0.137659
O      -0.324636    0.054182   -0.226305
C       0.427177   -0.589605   -1.196501
C       1.767445   -1.371953   -0.846457
C       1.274979   -2.259844    0.312035
C       0.109750   -2.716387   -0.151437
C       0.026010   -2.056899   -1.546438
N       1.424522   -2.146343   -2.082272
C       2.028482   -3.447723   -2.307851
H       1.175712    1.224421    0.628872
H       0.306145    1.976038   -0.735137
H      -0.510258    1.766330    0.838294
H       0.559395    0.035157   -2.088703
H       2.750965   -0.903534   -0.796387
H       1.757124   -2.417250    1.265908
H      -0.629275   -3.352615    0.312847
H      -0.799169   -2.302993   -2.215232
H       1.550552   -3.914449   -3.175457
H       3.087988   -3.309206   -2.546987
H       1.950851   -4.136940   -1.453158
