25

C       0.060508    1.313243    0.225954
O      -0.021069   -0.089781    0.227102
C      -1.321504   -0.566116   -0.051484
C      -1.283451   -2.089630   -0.044425
C      -2.657824   -2.767586   -0.194864
C      -3.322814   -2.467462   -1.547696
C      -2.528587   -4.267277    0.013606
C      -2.496444   -4.853700    1.401188
C      -3.695965   -5.080067    0.511127
H       1.095844    1.583206    0.449423
H      -0.213755    1.740454   -0.752447
H      -0.595516    1.763899    0.988534
H      -2.034312   -0.196885    0.708293
H      -1.663138   -0.177337   -1.025208
H      -0.613303   -2.429163   -0.844897
H      -0.826414   -2.407318    0.899466
H      -3.314042   -2.381950    0.600331
H      -4.277896   -2.994624   -1.634464
H      -3.517462   -1.399514   -1.684135
H      -2.684344   -2.797256   -2.376113
H      -1.892261   -4.757950   -0.720805
H      -1.834489   -5.689393    1.599582
H      -2.613326   -4.173875    2.239406
H      -4.612038   -4.552189    0.757889
H      -3.854576   -6.070915    0.099860
