14

N      -0.001751    1.330661    0.006435
C      -0.009741    0.059834    0.002499
N      -1.199740   -0.649381    0.009402
C      -2.497948   -0.093149    0.021233
C      -3.429398   -1.048009    0.025426
C      -2.761196   -2.396916    0.015979
C      -1.268328   -2.054624    0.005470
O      -0.316584   -2.795438   -0.004218
H       0.955789    1.676347    0.000063
H       0.850579   -0.613454   -0.006353
H      -2.583063    0.982065    0.025305
H      -4.496304   -0.885525    0.034211
H      -2.988713   -3.012502    0.894107
H      -3.002345   -3.006942   -0.862392
