16

C       0.052128    1.363249   -0.161320
O       0.084338   -0.037273   -0.023600
C      -1.213849   -0.600399    0.055475
C      -1.123529   -2.079390    0.133678
C      -1.297590   -2.971516    1.146931
C      -1.071309   -4.271447    0.590681
C      -0.777134   -4.067219   -0.719872
O      -0.808092   -2.743643   -1.016396
H       1.087050    1.708046   -0.221032
H      -0.480000    1.673711   -1.075024
H      -0.435429    1.850245    0.698943
H      -1.744831   -0.231541    0.947659
H      -1.806147   -0.303790   -0.826568
H      -1.551898   -2.730599    2.167430
H      -1.121778   -5.221891    1.097982
H      -0.535221   -4.724402   -1.538941
