16

C      -0.148331    1.481587   -0.186350
C      -0.021893   -0.018424   -0.016870
C       0.863024   -0.796108   -0.909788
O       1.276692   -0.477717    0.413967
C      -1.150117   -0.679076    0.597229
C      -2.118608   -1.179834    1.111334
C      -3.261004   -1.852148    1.729427
O      -3.687666   -3.011755    1.029196
H       0.757284    1.884220   -0.646465
H      -1.009433    1.725458   -0.815551
H      -0.290026    1.962785    0.785650
H       0.646496   -1.846356   -1.096468
H       1.389811   -0.275464   -1.709244
H      -3.018449   -2.081861    2.779363
H      -4.125704   -1.179512    1.746525
H      -2.921471   -3.586389    0.929221
