18

C       0.050404    1.510697   -0.060386
C       0.032611    0.056125   -0.008324
C       0.015822   -1.146475    0.033079
C      -0.020198   -2.601226    0.091275
C      -1.448917   -3.178019   -0.015241
O      -2.109743   -2.782132   -1.194504
C      -1.404295   -4.720059    0.119289
C      -2.730832   -5.327417    0.065812
N      -3.778062   -5.813996    0.036622
H       0.885746    1.876934   -0.667253
H      -0.874375    1.901195   -0.498862
H       0.152390    1.944387    0.940403
H       0.590241   -3.028959   -0.719264
H       0.435416   -2.953694    1.026263
H      -2.055550   -2.773087    0.800764
H      -1.543605   -2.978428   -1.949737
H      -0.790431   -5.141857   -0.687028
H      -0.925631   -5.003211    1.063876
