18

C      -0.036713    1.577572   -0.019433
C      -0.000009    0.047293    0.000063
C       0.730550   -0.520501    1.221873
C       0.767017   -2.051035    1.240686
C       1.506228   -2.599387    2.477769
C       1.549716   -4.059577    2.509862
N       1.573975   -5.214945    2.518501
H       0.974736    1.998479   -0.033210
H      -0.564242    1.951233   -0.902240
H      -0.547089    1.973425    0.865556
H      -1.024995   -0.345358   -0.022221
H       0.485042   -0.320480   -0.913578
H       1.757660   -0.130107    1.245889
H       0.245924   -0.155151    2.138167
H      -0.252966   -2.451847    1.228403
H       1.258859   -2.426768    0.336211
H       2.535373   -2.221639    2.503180
H       1.021913   -2.246945    3.396328
