18

O      -0.015663    1.437372   -0.075264
C       0.012906    0.023551    0.021656
C       0.597447   -0.547919    1.361161
C      -0.618318   -1.342810    1.898578
O      -1.224975   -1.806188    0.683832
C      -1.434778   -0.533469    0.072793
C      -2.178996    0.257672    1.153580
N      -3.018241   -0.605760    2.012109
C      -1.627073   -0.307346    2.407334
H       0.888283    1.752846   -0.162325
H       0.538378   -0.409625   -0.838668
H       1.449916   -1.207307    1.182981
H       0.910239    0.263707    2.024953
H      -0.402273   -2.193368    2.544792
H      -1.930746   -0.660077   -0.888817
H      -2.397900    1.308334    1.022766
H      -3.633003   -0.000282    2.552419
H      -1.408690    0.294971    3.281755
