17

O       0.540468    0.473877   -0.882770
C      -0.090028    0.281819    0.384098
C      -1.433016   -0.346695    0.274046
C      -2.703172    0.087124    0.626964
N      -3.702430   -0.819794    0.303626
C      -3.017228   -1.801317   -0.231732
C      -2.938713   -3.111005   -1.000436
C      -1.388706   -2.801230   -1.061753
N      -1.686698   -1.592783   -0.264663
H      -0.063933    0.997412   -1.420349
H       0.603596   -0.352547    0.947610
H      -0.189647    1.226439    0.938199
H      -2.943723    1.018157    1.120757
H      -3.205442   -4.014302   -0.447143
H      -3.436665   -3.122710   -1.972509
H      -0.734983   -3.514736   -0.554752
H      -0.997813   -2.578849   -2.057093
