23

C      -0.044964    1.402320    0.204691
O      -0.036029    0.017528   -0.038784
C      -1.319341   -0.562848    0.043149
C      -1.188334   -2.059859   -0.248100
C      -2.489433   -2.798140   -0.132453
C      -3.183182   -3.357173   -1.126812
C      -4.424212   -4.071143   -0.650135
C      -4.565670   -3.578544    0.813346
C      -3.161489   -3.057315    1.205504
H       0.985147    1.757679    0.120600
H      -0.667697    1.943730   -0.525736
H      -0.420630    1.639283    1.213363
H      -1.750708   -0.396051    1.044908
H      -2.004336   -0.095395   -0.684472
H      -0.769718   -2.179275   -1.252685
H      -0.453467   -2.471477    0.456568
H      -2.876033   -3.350416   -2.168023
H      -5.309942   -3.844921   -1.255000
H      -4.289478   -5.161419   -0.704442
H      -5.281309   -2.750847    0.848094
H      -4.936231   -4.352870    1.489867
H      -2.587829   -3.806509    1.771520
H      -3.210022   -2.169716    1.846637
