19

C      -0.085177    1.563316   -0.109126
C      -0.026624    0.050077    0.028424
C      -1.144261   -0.650144   -0.551101
N      -2.038114   -1.216450   -1.021073
C       1.331147   -0.687523   -0.052643
N       2.515912    0.108188   -0.162218
C       0.595363   -0.632145    1.253624
C       1.171014    0.156045    2.412518
O       2.393477   -0.415707    2.876655
H       0.903793    1.989679    0.063026
H      -0.397146    1.832935   -1.122081
H      -0.801627    2.003030    0.590974
H       1.293076   -1.639522   -0.581706
H       3.194785   -0.174222    0.536699
H       2.932065    0.040692   -1.082488
H       0.103059   -1.555608    1.547592
H       1.426140    1.171966    2.111146
H       0.433473    0.224324    3.224756
H       2.201601   -1.299356    3.207496
