14

O      -0.222983    1.358885    0.092781
C       0.019252   -0.041437   -0.012507
C       0.794217   -0.371859   -1.215657
C       1.441921   -0.615781   -2.197640
C       0.654978   -0.598627    1.223145
C       0.265155   -1.451618    2.200303
N       1.281714   -1.574887    3.140629
C       2.214137   -0.800665    2.694661
O       1.920332   -0.169603    1.534054
H       0.635012    1.799102    0.088563
H      -0.974132   -0.497400   -0.089989
H       2.008656   -0.838221   -3.068192
H      -0.666731   -1.985738    2.296308
H       3.181857   -0.596499    3.125120
