18

O       0.117398    1.403920   -0.257939
C       0.043871    0.011061   -0.063765
C       0.697163   -0.525467    1.235324
N      -0.023157   -1.773578    1.568346
C      -1.366622   -1.628099    2.168232
C      -1.962555   -0.251153    2.371135
O      -2.075415    0.347764    1.082424
C      -1.413631   -0.454937    0.104357
C      -1.233518   -1.843960    0.711689
H       1.025325    1.628805   -0.481920
H       0.467783   -0.533192   -0.924114
H       1.756378   -0.765188    1.104620
H       0.618943    0.227401    2.026973
H      -1.635871   -2.419772    2.860716
H      -2.960895   -0.335204    2.820087
H      -1.353407    0.384903    3.029743
H      -1.990792   -0.412554   -0.821710
H      -1.453552   -2.762472    0.179727
