17

C       0.260257    1.330277    0.646069
C       1.105632    2.319633   -0.106764
C       1.466800    2.278623   -1.392144
C       1.130585    1.254064   -2.404356
C      -0.217793    0.524228   -2.440005
O      -1.014163    0.597535   -1.292017
C      -0.224209    0.152423   -0.192063
O       0.874634   -0.583824   -0.723606
C       1.000520   -0.237777   -2.073368
H       0.819102    0.929242    1.503575
H      -0.622073    1.830640    1.069843
H       1.454880    3.162757    0.485072
H       2.086500    3.090222   -1.764529
H       1.541975    1.435822   -3.393629
H      -0.791583    0.417984   -3.352216
H      -0.832935   -0.528893    0.414684
H       1.482038   -1.004073   -2.667997
