19

C       0.006592    1.517430    0.290827
O       1.390941    1.607050   -0.118434
C       1.425543    0.200800   -0.471316
C      -0.040759    0.002730   -0.020218
C      -0.751939   -0.575769   -1.228814
C      -0.621992    0.027287   -2.623908
C       0.595790    0.941028   -2.771211
C       1.432572   -0.113776   -1.981684
C       0.262363   -1.132956   -2.196101
H      -0.111993    1.781393    1.348153
H      -0.649820    2.152770   -0.316097
H       2.216183   -0.324875    0.075983
H      -0.195406   -0.625561    0.859539
H      -1.666455   -1.139527   -1.077340
H      -1.475374    0.003239   -3.292734
H       0.915692    0.977214   -3.815853
H       0.566416    1.956107   -2.370367
H       2.413118   -0.354726   -2.390579
H       0.317122   -2.151648   -2.555729
