19

C       0.211904    1.285137   -0.083106
C      -0.108257   -0.164178    0.300242
N      -1.511583   -0.476151    0.077184
C      -1.924658   -0.977900   -0.994967
C      -3.311536   -1.417286   -1.449503
C      -2.643895   -1.900543   -2.768029
N      -1.359022   -1.412372   -2.235800
C      -0.171811   -1.319124   -2.914173
O      -0.027561   -1.733201   -4.042248
H       1.247118    1.530232    0.173155
H       0.077052    1.451452   -1.156911
H      -0.450593    1.973158    0.449207
H       0.564081   -0.853561   -0.232414
H       0.088564   -0.300127    1.369186
H      -3.760475   -2.195445   -0.830522
H      -4.020682   -0.595978   -1.566326
H      -2.652285   -2.979222   -2.938885
H      -2.947395   -1.384173   -3.680957
H       0.627838   -0.826887   -2.335684
