23

C      -0.448654    1.336067    0.981591
C       0.299279    0.147165    0.392723
O       0.959584    0.626198   -0.780828
C       2.074708   -0.139443   -1.242313
C       2.908412    0.794087   -2.110126
C       2.853933   -0.727987   -0.052445
C       1.940331   -1.731515    0.697407
C       1.314911   -0.479568    1.364853
C       2.691425    0.219153    1.171104
H       0.251831    2.092765    1.348693
H      -1.080477    1.798518    0.218458
H      -1.084527    1.016028    1.812863
H      -0.431941   -0.630104    0.107972
H       1.710052   -0.975912   -1.864620
H       3.352112    1.592477   -1.507022
H       3.713191    0.241597   -2.604959
H       2.280626    1.255523   -2.877198
H       3.852640   -1.049895   -0.357713
H       1.284169   -2.371807    0.097116
H       2.496536   -2.347333    1.409314
H       0.892369   -0.572063    2.368415
H       3.389198   -0.032997    1.973010
H       2.703349    1.297219    0.995096
