19

O       0.204519    1.391597   -0.130540
C       0.109607   -0.006807    0.061883
C       0.544782   -0.500025    1.450546
O      -0.137706   -1.730447    1.611888
C      -1.455574   -1.510214    1.120546
C      -1.355443   -0.498631   -0.036743
C      -2.475356    0.553694   -0.201143
C      -2.656937   -0.054272   -1.602252
O      -1.653988   -1.059769   -1.340707
H       1.126007    1.612908   -0.292737
H       0.661581   -0.553789   -0.714405
H       1.617352   -0.690615    1.544490
H       0.246221    0.242834    2.210298
H      -1.868818   -2.463562    0.783587
H      -2.095985   -1.102754    1.919950
H      -3.321059    0.409804    0.474431
H      -2.141523    1.589167   -0.163852
H      -3.635240   -0.499431   -1.817658
H      -2.368809    0.596995   -2.435880
