15

C      -0.033511    1.520817    0.089536
O       1.299601    1.926097   -0.242210
C       2.112661    0.813267   -0.608580
C       1.252230   -0.395568   -0.367829
N       1.603930   -1.665685   -0.518966
C       0.628743   -2.539889   -0.234468
N      -0.612819   -2.267861    0.168041
C      -0.934280   -0.974214    0.306759
C      -0.009462    0.021389    0.044179
H      -0.291774    1.915543    1.081435
H      -0.745290    1.948300   -0.632452
H       2.418537    0.885193   -1.662709
H       3.024525    0.799241    0.002618
H       0.880039   -3.591673   -0.344571
H      -1.949236   -0.757784    0.633892
