23

C      -0.474087    1.320592   -0.109960
C       0.072627   -0.100601    0.060998
C       0.821798   -0.566868   -1.192641
C       0.992954   -0.209009    1.302581
C       0.328149    0.079450    2.568752
C      -0.241295    0.312782    3.606425
C      -0.906640    0.596897    4.845615
C      -2.231294   -0.072383    5.178402
C      -0.994851   -0.463973    5.931994
H       0.340067    2.030829   -0.300585
H      -1.167011    1.375657   -0.955840
H      -1.002986    1.649388    0.788778
H      -0.776182   -0.776469    0.228515
H       1.691769    0.071386   -1.389795
H       1.180833   -1.596388   -1.087615
H       0.175515   -0.525484   -2.075207
H       1.422518   -1.219144    1.340652
H       1.845330    0.473532    1.171944
H      -0.798984    1.618424    5.199744
H      -2.979209    0.528636    5.683360
H      -2.626044   -0.769451    4.449020
H      -0.549015   -1.427225    5.715078
H      -0.885971   -0.134106    6.959080
