21

O       0.151045    1.374352   -0.654859
C       0.151440   -0.019577   -0.380287
C      -1.197939   -0.518247    0.123014
C      -2.343026   -0.447716   -0.933192
C      -2.294363   -1.998088   -1.086109
C      -1.367737   -2.046881    0.134487
C      -0.360823   -3.104538    0.522574
C      -1.587250   -2.857789    1.369210
O      -1.457305   -2.179122    2.585424
H      -0.078079    1.830682    0.161447
H       0.405041   -0.505958   -1.329233
H       0.942244   -0.283924    0.340027
H      -1.423770   -0.044731    1.085113
H      -3.287323   -0.091619   -0.515697
H      -2.113640    0.139987   -1.824438
H      -3.246125   -2.528942   -0.992276
H      -1.808313   -2.325906   -2.010226
H      -0.310122   -4.014055   -0.068746
H       0.588742   -2.771643    0.930036
H      -2.381247   -3.606145    1.343060
H      -1.027782   -2.769925    3.212705
