19

C      -0.105409    1.489692    0.048781
O       1.152639    0.816295    0.011024
C      -0.051653    0.021145    0.027749
C      -0.283438   -0.851518    1.210721
C      -0.567968   -2.104273    0.845282
C      -0.593695   -2.286883   -0.648442
C      -2.009327   -2.335441   -1.307274
C      -1.894187   -0.821171   -1.634713
C      -0.398297   -0.829019   -1.185343
H      -0.331045    2.014088    0.977697
H      -0.378619    2.028753   -0.858734
H      -0.198087   -0.482849    2.226331
H      -0.771542   -2.919634    1.532155
H       0.099208   -3.065259   -0.982697
H      -2.030218   -2.963665   -2.201379
H      -2.833705   -2.635708   -0.655819
H      -2.068222   -0.549874   -2.678123
H      -2.522592   -0.183791   -1.007284
H       0.320488   -0.690379   -1.993518
