20

C      -0.219421    1.615694    0.054343
C      -0.050296    0.094538    0.035612
C       0.665909   -0.404653   -1.219989
N       0.754981   -1.866076   -1.235469
C       1.887969   -2.460473   -0.462241
C       1.971427   -3.677063   -1.426899
O       3.407839   -3.582263   -1.633873
C       2.986738   -2.191992   -1.560286
C       1.620521   -2.442141   -2.304263
H       0.749463    2.126108    0.016391
H      -0.807369    1.960087   -0.803788
H      -0.732731    1.946385    0.962165
H       0.511721   -0.223472    0.923357
H      -1.026491   -0.399381    0.096707
H       0.095857   -0.102567   -2.108456
H       1.655764    0.083265   -1.299546
H       1.972083   -2.438265    0.624492
H       1.498494   -4.655354   -1.367501
H       3.751138   -1.422734   -1.663943
H       1.389083   -2.391853   -3.369074
