15

N       0.037541    1.388111   -0.102455
C      -0.077274    0.038969   -0.035920
C      -1.224337   -0.700255    0.021463
C      -1.136407   -2.126174    0.036013
N      -2.307661   -2.875467    0.148901
N      -0.010092   -2.788647    0.002403
N       1.114772   -2.015426   -0.011549
C       1.225432   -0.657132   -0.039328
O       2.300612   -0.060000   -0.051540
H       0.978533    1.733503    0.027700
H      -0.734888    1.983326    0.139688
H      -2.199932   -0.226009    0.064951
H      -3.084390   -2.515542   -0.387920
H      -2.147146   -3.856624   -0.037960
H       1.979523   -2.537153   -0.009100
