16

N      -0.493389    1.482474    0.399557
C      -0.514521    0.228535    0.522188
O      -0.894235   -0.536057   -0.528013
C      -0.860182   -1.957313   -0.329516
C      -1.852122   -2.398234    0.651863
C      -2.675234   -2.757377    1.449558
C      -1.108623   -2.569408   -1.697822
C       0.009640   -2.839226   -2.603465
O      -0.622775   -3.893231   -1.868016
H      -0.182986    1.912090    1.268625
H      -0.251275   -0.349738    1.416533
H       0.142049   -2.265351   -0.000432
H      -3.401030   -3.079008    2.155790
H      -2.098296   -2.374106   -2.107502
H      -0.162496   -2.848175   -3.677632
H       1.024217   -2.595237   -2.292756
