23

C       0.157931    1.618811   -0.156269
C       0.071368    0.095141   -0.076565
C       0.726523   -0.635964   -1.282996
C       1.188812   -1.968430   -0.723780
O       2.395417   -1.856904    0.045787
C       1.140551   -1.948551    0.748244
C       0.966927   -3.162016    1.620998
C       0.648741   -0.571414    1.220934
C       1.759305    0.205987    1.940012
H       1.196748    1.964046   -0.162314
H      -0.315442    1.981744   -1.075029
H      -0.350809    2.097954    0.687165
H      -0.992265   -0.175394   -0.098261
H       0.017309   -0.760558   -2.107576
H       1.589407   -0.084961   -1.674927
H       1.097757   -2.885149   -1.303617
H       1.375408   -4.049490    1.130899
H       1.488097   -3.032908    2.576403
H      -0.092080   -3.336338    1.839958
H      -0.172910   -0.719556    1.932199
H       2.621309    0.354525    1.285675
H       1.405852    1.181974    2.284115
H       2.105130   -0.347845    2.819528
