22

C      -0.565512    1.568300   -0.198363
C      -0.301468    0.118744    0.215349
C      -1.397650   -0.849041   -0.251563
O      -1.577227   -0.780694   -1.670444
C      -1.123825   -2.282017    0.231373
N      -2.128942   -3.311295    0.044251
C      -3.122242   -3.126540   -0.706593
O      -4.050003   -4.103493   -0.824643
C      -5.104067   -3.830920   -1.738141
H       0.261022    2.221228    0.097197
H      -0.695207    1.641491   -1.281101
H      -1.478388    1.950512    0.271719
H       0.661820   -0.217907   -0.195167
H      -0.209113    0.048896    1.306125
H      -2.360801   -0.516145    0.158075
H      -0.793557   -1.164338   -2.080616
H      -0.187791   -2.634768   -0.232313
H      -0.905532   -2.238364    1.306849
H      -3.323470   -2.234037   -1.307915
H      -5.637151   -2.908009   -1.477670
H      -4.735369   -3.752215   -2.768401
H      -5.795744   -4.671800   -1.671006
