21

C      -0.353293    1.454734    0.106019
C       0.060193   -0.009731   -0.101131
O       0.780273   -0.179666   -1.321995
C       0.808416   -0.527184    1.049327
C       1.461256   -0.917852    1.984113
C       2.229778   -1.430630    3.112828
C       1.955763   -2.917967    3.406023
C       2.771075   -3.430296    4.586105
O       2.446065   -4.797375    4.776218
H       0.530748    2.084900    0.247687
H      -0.899639    1.806781   -0.772997
H      -0.989691    1.558730    0.989741
H      -0.846220   -0.612614   -0.236439
H       1.661228    0.186315   -1.185999
H       3.301146   -1.286651    2.916349
H       2.007082   -0.832127    4.006869
H       0.891565   -3.064080    3.617057
H       2.189163   -3.519076    2.521504
H       3.846759   -3.299344    4.380010
H       2.539213   -2.834762    5.485159
H       2.958853   -5.129313    5.518767
