15

C      -0.015761    1.458390    0.030269
C       0.007630   -0.031748   -0.020643
N       0.039320   -0.756145   -1.129922
C       0.073671   -2.061466   -0.733004
N       0.170491   -3.078376   -1.650915
C       0.056485   -2.146944    0.655598
N       0.015911   -0.813422    1.081540
C       0.060046   -3.251248    1.514966
N       0.058399   -4.182185    2.211293
H       0.950278    1.862977    0.353483
H      -0.229159    1.841983   -0.967795
H      -0.780045    1.827319    0.721858
H      -0.145421   -2.822663   -2.574525
H      -0.150969   -3.984847   -1.346670
H      -0.007112   -0.510829    2.040963
