14

O       0.026091    1.354625    0.134230
C      -0.013678   -0.044121    0.038191
C      -1.468745   -0.501380    0.172205
O      -2.315625    0.122833    0.770075
N      -1.717585   -1.715236   -0.423911
C      -2.999489   -2.369676   -0.268207
C      -2.884872   -3.677497    0.390126
N      -2.777899   -4.716283    0.883975
H       0.934282    1.619201    0.304938
H       0.403391   -0.410470   -0.915201
H       0.546965   -0.538835    0.848345
H      -0.981946   -2.200740   -0.911168
H      -3.615053   -1.697404    0.338122
H      -3.503276   -2.506403   -1.232647
