21

C       0.052482    1.474213    0.245087
O       1.461928    1.476001   -0.129138
C       1.273918    0.222784   -0.802861
C       2.188678   -0.989712   -0.748648
C       1.288198   -1.983887   -1.579680
C       0.145523   -1.099268   -2.193265
C      -0.933845   -0.766082   -1.120778
C      -0.056980   -0.037298   -0.079701
C       0.861697    0.257828   -2.295065
H      -0.084144    1.770688    1.289090
H      -0.537480    2.136711   -0.402042
H       3.155748   -0.818968   -1.232092
H       2.371768   -1.335398    0.271929
H       1.868033   -2.453691   -2.378211
H       0.886827   -2.788395   -0.956279
H      -0.262277   -1.516485   -3.115737
H      -1.715015   -0.130119   -1.551765
H      -1.421748   -1.654848   -0.710015
H       0.075813   -0.621989    0.833571
H       0.197853    1.088915   -2.545589
H       1.719453    0.265776   -2.973509
