17

O      -0.273664    1.476871   -0.297291
C       0.074965    0.119265   -0.029585
C      -1.163934   -0.801032    0.220756
C      -1.481289   -1.558581   -1.111490
C      -0.162394   -1.484478   -1.824426
C       0.551904   -1.974371   -2.893585
N       1.761057   -1.340198   -2.841143
N       1.885691   -0.472514   -1.813444
C       0.710251   -0.570214   -1.203877
H      -0.536576    1.534809   -1.221815
H       0.716459    0.164191    0.854546
H      -0.905423   -1.534370    0.991647
H      -2.004157   -0.210286    0.592466
H      -1.827153   -2.579014   -0.921082
H      -2.277846   -1.060718   -1.678398
H       0.334005   -2.695739   -3.665351
H       2.543391   -1.470293   -3.460716
