15

O       0.229625    1.371771   -0.248160
C       0.114761    0.010113   -0.096808
C       1.076187   -0.902445    0.639591
O       0.414604   -1.868335    1.414452
C      -0.735093   -2.085549    0.638621
C      -1.194013   -0.823847   -0.091346
C      -0.473111   -1.925329   -0.846296
O      -0.953083   -2.726371   -1.855316
C       0.834009   -1.088624   -0.857521
H       0.118840    1.784947    0.616385
H       2.021678   -0.561344    1.040473
H      -1.428599   -2.813250    1.039213
H      -2.211099   -0.462341   -0.143336
H      -0.544281   -3.596291   -1.774407
H       1.592379   -1.054033   -1.626645
