20

C      -0.018845    1.549114    0.021207
C       0.004326    0.007492    0.005723
C      -1.436579   -0.541468    0.029026
C       0.803122   -0.541727   -1.202102
C       1.990560   -1.332811   -0.620062
O       2.831142   -1.902368   -1.286893
C       1.887393   -1.257567    0.827642
C       0.804493   -0.528066    1.195301
N       0.416186   -0.210732    2.458900
H       0.997008    1.954709   -0.001547
H      -0.557555    1.927410   -0.853430
H      -0.516016    1.941921    0.914554
H      -1.983965   -0.199411   -0.854884
H      -1.440582   -1.635746    0.029525
H      -1.996922   -0.200673    0.907720
H       0.203274   -1.203690   -1.834213
H       1.180775    0.255788   -1.849130
H       2.594940   -1.731314    1.496551
H       0.841279   -0.687744    3.236842
H      -0.516074    0.131396    2.617463
