20

C      -0.049568    1.546162   -0.012230
C       0.026398    0.030856   -0.001371
C       1.084483   -0.698162   -0.894361
C       1.085983   -1.814417    0.189031
C       0.699738   -0.702377    1.205865
C      -0.097928   -2.773090   -0.029773
C      -1.366035   -1.983100   -0.260496
C      -1.310506   -0.651443   -0.247653
H       0.933994    1.992004    0.168727
H      -0.414412    1.917507   -0.977353
H      -0.732918    1.913998    0.762496
H       0.790970   -0.960910   -1.914334
H       2.035900   -0.157381   -0.909086
H       2.016325   -2.361760    0.358364
H       1.583766   -0.162336    1.559000
H       0.063903   -0.968874    2.054526
H       0.099986   -3.434041   -0.885935
H      -0.215890   -3.437498    0.838378
H      -2.295272   -2.519142   -0.431805
H      -2.191404   -0.035127   -0.407794
