20

C       0.661827    1.528639   -0.246236
C       0.090988    0.126838    0.032946
C       0.365270   -0.826682   -1.109710
C       1.236737   -1.783791   -0.789635
C       1.744362   -1.623751    0.623087
O       3.101692   -1.170591    0.647070
C       0.710987   -0.637891    1.246925
C       1.259409    0.205080    2.395366
H       1.747762    1.500819   -0.385671
H       0.224667    1.949411   -1.158016
H       0.446434    2.217774    0.575732
H      -0.990218    0.241858    0.185699
H      -0.089131   -0.697287   -2.087573
H       1.614592   -2.550455   -1.457106
H       1.769450   -2.563499    1.185097
H       3.197094   -0.515010   -0.052100
H      -0.092000   -1.272929    1.641547
H       2.120308    0.801577    2.085148
H       0.494084    0.881195    2.791058
H       1.593579   -0.437261    3.216443
