13

O      -0.936756    1.199148   -0.146092
C       0.197481    0.840903    0.073783
C       1.369998    1.736220   -0.028998
C       1.352670    3.044331   -0.346459
C       2.729640    3.631541   -0.266524
O       3.277311    3.529657    1.063121
C       3.645897    2.539623    0.090636
C       2.782169    1.284292    0.204963
O       3.162292    0.157910    0.402052
H       0.437546   -0.200221    0.364573
H       0.460824    3.609035   -0.590600
H       3.023058    4.506168   -0.836045
H       4.694269    2.482550   -0.182701
