19

C      -0.522419    1.365741   -0.064353
N      -0.379677   -0.084579   -0.070286
C       1.019633   -0.485906    0.034808
C      -1.198087   -0.730210    0.944793
C      -1.434149   -2.214989    0.655355
O      -1.358023   -3.059701    1.507222
C      -1.832570   -2.530480   -0.798040
C      -1.903011   -3.954351   -1.090882
N      -1.956863   -5.078876   -1.347109
H       0.057723    1.791422   -0.888525
H      -1.571972    1.637569   -0.211189
H      -0.172668    1.833259    0.874050
H       1.486353   -0.161764    0.982725
H       1.108104   -1.575485   -0.023740
H       1.589274   -0.054867   -0.793283
H      -0.788017   -0.657300    1.966406
H      -2.185751   -0.249433    0.953239
H      -2.809903   -2.065808   -0.985466
H      -1.137633   -2.022220   -1.473513
