21

C      -0.921170    0.680920    0.207412
O      -0.289150   -0.564730   -0.002097
C       0.727712   -0.526180   -0.986928
C       1.593324   -1.756112   -0.816550
C       2.965884   -1.788468   -1.438759
C       2.819699   -1.697564    0.058280
C       0.163654   -0.487417   -2.422089
C      -1.082584   -1.305354   -2.697712
O       0.733760    0.144956   -3.281123
H      -0.203417    1.445216    0.541031
H      -1.422201    1.056647   -0.697805
H      -1.671899    0.534166    0.987373
H       1.350609    0.374687   -0.875455
H       1.030951   -2.685122   -0.805733
H       3.307048   -2.722104   -1.871173
H       3.289145   -0.905092   -1.978305
H       3.051715   -0.752335    0.537380
H       3.058946   -2.570007    0.655827
H      -0.942669   -2.341224   -2.370874
H      -1.930427   -0.915143   -2.126367
H      -1.308768   -1.276343   -3.764102
