17

C      -0.050364   -1.172876   -0.360735
C      -0.031272    0.002640   -0.114152
C       0.013476    1.428981    0.196944
C       1.419229    1.992703    0.178085
C       2.505537    1.433739    1.079581
O       3.555831    2.393106    1.063826
C       3.035436    3.672891    0.722989
C       1.763908    3.399295   -0.047881
O       1.941280    2.423956   -1.084012
H      -0.073142   -2.210233   -0.586571
H      -0.592374    1.988823   -0.524097
H      -0.427867    1.601138    1.187638
H       2.100796    1.287298    2.094809
H       2.910695    0.481649    0.725240
H       2.800907    4.274176    1.617341
H       3.797337    4.198990    0.138762
H       1.033280    4.182189   -0.234204
