17

O       0.406138    1.142129   -0.479045
C       0.052297   -0.135373   -0.031101
C       0.155567   -0.409676    1.526614
C      -1.393878   -0.388465    1.626528
C      -2.373515    0.806595    1.634157
C      -2.915087   -0.067880    0.478785
C      -2.484870   -1.412362    1.212698
O      -1.742638   -1.951496    0.090228
C      -1.471136   -0.506870    0.078557
H       0.036353    1.799003    0.119435
H       0.585829   -0.847903   -0.664353
H       0.606943   -1.375301    1.759980
H       0.673113    0.369280    2.093336
H      -3.012023    0.929308    2.513941
H      -1.971459    1.781775    1.337816
H      -3.794001    0.081529   -0.154332
H      -3.104433   -2.100221    1.796852
