18

C       0.012477    1.442091   -0.070310
N      -0.116519    0.008178    0.097205
C       0.582468   -0.675421    1.079313
C       1.198909   -0.021588    2.160844
N       1.834071   -0.674633    3.134113
C       1.901098   -1.998445    3.087257
C       1.331749   -2.759132    2.050659
N       1.488017   -4.145186    2.014868
C       0.664019   -2.073356    1.040404
H       1.053302    1.775669   -0.202460
H      -0.562360    1.744925   -0.948303
H      -0.402862    1.970893    0.794300
H      -0.233721   -0.506029   -0.761488
H       1.173693    1.059712    2.243223
H       2.431534   -2.497147    3.896896
H       1.668476   -4.565977    2.915182
H       0.761699   -4.641766    1.519101
H       0.204628   -2.620536    0.220227
