17

C      -0.003767    1.439509   -0.182624
C       1.302169    0.752736    0.025031
C       2.029614    0.784536    1.355397
C       1.132446    1.156673    2.552999
C       0.742303   -0.327661    2.432542
C      -0.331080   -0.560428    1.360409
N       0.038663   -0.004298    0.042809
O       2.045791   -0.601691    1.838423
H      -0.385229    2.095466    0.594817
H      -0.298809    1.729058   -1.188625
H       1.937350    0.547532   -0.834936
H       3.033842    1.208694    1.285272
H       1.734360    1.340581    3.444118
H       0.368293    1.927615    2.454558
H       0.562081   -0.919096    3.334575
H      -0.452951   -1.641065    1.224656
H      -1.297990   -0.157597    1.686420
