19

C      -0.229643    1.538092   -0.010428
C       0.100324    0.054774    0.080040
N       0.957601   -0.386711   -1.032110
C       1.434932   -1.720233   -0.681397
C       1.774006   -1.572245    0.825640
C       0.915379   -0.373231    1.322793
O       1.717472    0.714089    1.756606
C       0.425388   -2.781203   -0.911512
N      -0.383825   -3.581076   -1.119965
H       0.684051    2.133475   -0.018922
H      -0.798186    1.746661   -0.922794
H      -0.840245    1.848767    0.842310
H      -0.840723   -0.522675    0.105963
H       0.475182   -0.369943   -1.924292
H       2.319608   -1.980499   -1.271082
H       1.591608   -2.495419    1.377922
H       2.827661   -1.304601    0.928118
H       0.232676   -0.679566    2.125521
H       2.153203    0.455929    2.574272
