17

O       0.012328    1.384382    0.069226
C       0.018631    0.008003    0.036169
C      -0.268790   -0.912100    1.216967
C       0.618759   -2.152325    1.060177
C       0.626449   -2.188123   -0.494053
C      -0.889724   -2.113625   -0.829997
C      -1.214852   -0.887839    0.031447
C       1.024516   -0.731074   -0.781991
O       1.892236   -0.247187   -1.464938
H       0.740707    1.659130   -0.506122
H      -0.551930   -0.492759    2.173234
H       1.621264   -2.019607    1.479009
H       0.173031   -3.052374    1.496542
H       1.221643   -2.953676   -0.984751
H      -1.072707   -1.950497   -1.896738
H      -1.432097   -3.011186   -0.514699
H      -2.201461   -0.450227    0.105931
