17

O      -0.054720    1.419180   -0.170830
C       0.001139    0.053958    0.059867
C      -0.205364   -0.443626    1.473752
C      -1.286084   -0.683881    0.456705
C      -2.553746    0.101123    0.498208
C      -3.705029   -0.250263   -0.341378
O      -3.689701   -0.572761    1.050923
C       0.933055   -0.662739   -0.832582
O       1.540987   -0.086313   -1.707345
H       0.500769    1.559880   -0.954710
H       0.380166   -1.285452    1.827412
H      -0.368727    0.343173    2.202247
H      -1.400976   -1.701254    0.092472
H      -2.444945    1.138236    0.809676
H      -4.413234    0.521835   -0.638102
H      -3.637055   -1.101132   -1.018620
H       1.032043   -1.754290   -0.664119
