17

C      -0.076858    1.576338    0.048090
C       0.016454    0.061174    0.005269
C       0.734102   -0.593841   -1.220424
C       1.748578   -1.140552   -0.204948
O       2.733596   -1.836696   -0.215303
N       1.086451   -0.522729    0.841787
C       1.254843   -0.526594    2.238034
N       2.367004   -1.203400    2.623152
O       0.466216    0.037144    2.968442
H       0.885076    2.034604   -0.204183
H      -0.826567    1.928398   -0.667492
H      -0.365675    1.904665    1.049063
H      -0.952026   -0.394885    0.230545
H       0.172016   -1.364011   -1.751340
H       1.158319    0.111284   -1.938308
H       2.925329   -1.700703    1.943285
H       2.530622   -1.310805    3.608644
