23

C       1.182615   -0.305670    1.212295
C       0.137543    0.001610    0.133340
C       0.635017   -0.301553   -1.267149
O       1.798257    0.390826   -1.654600
C       1.624402    1.782601   -1.843319
C       0.590964   -1.695248   -1.854409
C       0.045441   -2.899813   -1.119461
C      -0.331764   -0.605133   -2.384857
O      -1.695030   -0.624180   -2.066504
H       1.415790   -1.374653    1.246043
H       2.116395    0.227566    1.012985
H       0.822701   -0.008559    2.202110
H      -0.784063   -0.556095    0.312965
H      -0.149356    1.059351    0.187668
H       2.551161    2.158893   -2.283724
H       0.790177    1.999753   -2.525250
H       1.446819    2.314849   -0.898776
H       1.440411   -1.901093   -2.500099
H      -0.876150   -2.666838   -0.581142
H      -0.181005   -3.708059   -1.824595
H       0.770083   -3.290926   -0.398155
H      -0.092179   -0.185516   -3.361899
H      -2.109362   -1.333024   -2.570107
