17

C      -0.060978    1.552526    0.009959
C       0.106092    0.028212   -0.025620
C       0.783555   -0.466029   -1.268366
N       2.201838   -0.144453   -1.663183
C       1.731199   -1.025261   -2.780340
C       0.919434   -1.926393   -1.810615
O      -0.310800   -1.883507   -2.590580
C       0.245193   -0.546098   -2.747755
H       0.909386    2.058749   -0.020929
H      -0.653971    1.906399   -0.840038
H      -0.569371    1.867773    0.925539
H       0.684919   -0.305026    0.844282
H      -0.873051   -0.462702    0.034137
H       2.268438    0.824015   -1.986839
H       2.349525   -1.312361   -3.630681
H       1.195040   -2.847440   -1.299012
H      -0.290065    0.178912   -3.363719
