19

C       0.134138    1.383761   -0.045072
O       0.083816   -0.025298   -0.017668
C       0.701715   -0.634881   -1.129577
C       0.450365   -2.136436   -1.005584
O      -0.920353   -2.398314   -0.884723
C       1.175733   -2.974800   -2.095824
C       2.294741   -3.374494   -1.087673
C       1.390499   -2.828371    0.033517
O       1.330715   -2.999407    1.214276
H       1.171434    1.750451   -0.030603
H      -0.364833    1.789961   -0.938250
H      -0.381348    1.744802    0.847454
H       0.251473   -0.275582   -2.070635
H       1.780058   -0.407457   -1.159931
H      -1.258824   -1.758178   -0.244378
H       0.553403   -3.821502   -2.389481
H       1.489683   -2.429162   -2.987733
H       2.555361   -4.431923   -1.007449
H       3.217895   -2.796842   -1.198211
