16

C      -0.021648    1.548301    0.024336
C       0.056652    0.040129    0.017222
C      -0.820552   -0.797906    0.926082
C       0.693270   -0.781851    1.110234
C       1.457871   -1.898883    0.432141
O       2.173448   -2.713578    0.967015
C       1.170119   -1.768578   -1.026981
C       0.418457   -0.682048   -1.248347
H       0.930244    1.997503   -0.278135
H      -0.795379    1.905526   -0.665109
H      -0.267865    1.923045    1.022002
H      -1.399139   -0.280195    1.685542
H      -1.288710   -1.690059    0.524359
H       1.097152   -0.348807    2.016640
H       1.524706   -2.483932   -1.757236
H       0.056077   -0.347562   -2.215292
