23

O      -0.075925    1.460633   -0.033324
C       0.004475    0.044924    0.049672
C      -1.396313   -0.520907   -0.148517
C      -1.444775   -2.040078   -0.069024
C      -1.224936   -2.740794    1.305695
C      -2.342604   -3.750216    0.928798
C      -3.314531   -4.179991    2.006443
O      -4.308549   -4.995753    1.401586
C      -2.824451   -2.750557   -0.157153
H       0.805548    1.819959    0.102214
H       0.680332   -0.361401   -0.721321
H       0.400932   -0.273512    1.027767
H      -2.058797   -0.085569    0.610590
H      -1.772730   -0.183122   -1.122497
H      -0.761684   -2.471604   -0.811303
H      -0.232596   -3.138271    1.533465
H      -1.536462   -2.090416    2.132222
H      -1.916736   -4.644562    0.461670
H      -2.775299   -4.726796    2.798667
H      -3.762548   -3.286647    2.473588
H      -4.948591   -5.241807    2.075658
H      -3.627360   -2.109551    0.224579
H      -3.133720   -3.153869   -1.123578
