18

N       0.158746    1.395787    0.028329
C       0.021266    0.000411   -0.038661
C      -1.052749   -0.824623    0.216257
C      -0.582154   -2.172050    0.115459
N      -1.372076   -3.311177    0.362194
C       0.756772   -2.131246   -0.216024
C       1.768791   -3.189852   -0.443229
O       2.874938   -3.125370    0.469494
N       1.104452   -0.777730   -0.324008
H       0.471422    1.800603   -0.848414
H      -0.714698    1.834117    0.290281
H      -2.064026   -0.509405    0.426032
H      -2.326053   -3.188384    0.046602
H      -0.997297   -4.147745   -0.066481
H       1.281312   -4.176454   -0.403702
H       2.236356   -3.106244   -1.432944
H       2.494216   -3.074125    1.353616
H       2.055285   -0.452029   -0.273202
