23

C       0.072609    1.508486    0.341383
C       0.008773    0.034643   -0.011121
C       1.014074   -0.515959   -0.991658
C       1.119887   -0.860113    0.477520
C      -1.406291   -0.524215   -0.034805
C      -2.318682    0.056245   -1.129982
C      -3.299679   -1.096262   -1.380751
C      -2.390572   -2.317260   -1.204185
O      -1.389902   -1.939383   -0.259590
H       1.110178    1.850184    0.402190
H      -0.436138    2.128533   -0.405809
H      -0.397919    1.704941    1.312829
H       0.690743   -1.308917   -1.656084
H       1.739960    0.168401   -1.418508
H       1.917750   -0.407046    1.057150
H       0.861910   -1.872341    0.763249
H      -1.862292   -0.340290    0.953502
H      -2.808935    0.982543   -0.822273
H      -1.729294    0.264168   -2.030297
H      -4.090757   -1.096242   -0.623201
H      -3.774820   -1.061350   -2.364252
H      -2.919326   -3.198088   -0.823390
H      -1.912788   -2.595611   -2.155429
