23

C      -0.018962    1.564691    0.103679
C      -0.108170    0.042039   -0.055020
C       0.721392   -0.506933   -1.218413
O       0.277422    0.037049   -2.457123
C       2.291260   -0.471893   -1.111529
C       2.319267   -1.984664   -1.350385
C       1.539769   -2.672718   -0.265391
C       0.789594   -2.038167   -1.407962
C      -0.130038   -2.805668   -2.314553
H       1.016577    1.894811    0.244197
H      -0.425962    2.086764   -0.769547
H      -0.593037    1.902342    0.971446
H       0.216740   -0.436168    0.875144
H      -1.153393   -0.250457   -0.213646
H       0.449055    0.984109   -2.443928
H       2.714808    0.108321   -1.934121
H       2.724970   -0.129414   -0.164861
H       3.041083   -2.511895   -1.963020
H       1.555820   -3.758213   -0.291175
H       1.516744   -2.261440    0.741382
H      -1.126295   -2.923930   -1.870988
H      -0.248316   -2.291644   -3.271750
H       0.264671   -3.809096   -2.506332
