15

O      -0.081709    1.457204    0.082711
C       0.028729    0.050451   -0.039104
C      -1.389223   -0.508543    0.003249
C      -1.431105   -2.059732   -0.028790
C      -2.796362   -2.566655    0.115734
C      -3.923300   -2.956319    0.249490
C      -0.807521   -2.585016   -1.256966
N      -0.296966   -2.977321   -2.215952
H       0.789628    1.841740   -0.049463
H       0.517718   -0.238227   -0.981023
H       0.622775   -0.379351    0.785495
H      -1.879976   -0.180256    0.923698
H      -1.967210   -0.112014   -0.835747
H      -0.829516   -2.435336    0.811567
H      -4.918328   -3.310641    0.363365
