16

O      -0.130546    1.453246    0.001815
C       0.042224    0.044961    0.008091
C      -1.358211   -0.560085    0.007887
C      -1.352835   -2.050909    0.013977
N      -0.290410   -2.798256    0.018297
N      -0.776606   -4.088044    0.022893
C      -2.152028   -4.173953    0.021675
O      -2.876873   -5.144053    0.024743
N      -2.498166   -2.814804    0.015821
H       0.739901    1.861306    0.002482
H       0.596504   -0.304038   -0.874099
H       0.593030   -0.296593    0.895355
H      -1.906049   -0.186450    0.882449
H      -1.902660   -0.193563   -0.871793
H      -0.143390   -4.867496    0.027080
H      -3.450608   -2.493364    0.012857
