20

C       0.074175    1.492375   -0.141013
C       1.288273    0.644369   -0.022289
C       1.997087    0.493222    1.347419
C       0.992653   -0.243827    2.224580
C      -0.316258    0.400954    2.607719
C      -0.255873   -0.453757    1.373431
C      -0.278935   -1.951510    1.709870
C       0.993119   -1.738505    2.606524
N      -0.078749    0.041995    0.022940
H      -0.182660    2.156525    0.678747
H      -0.230848    1.868753   -1.114764
H       1.875332    0.440585   -0.914536
H       2.903656   -0.106983    1.223525
H       2.310797    1.462440    1.750372
H      -0.855409    0.031390    3.477522
H      -0.388743    1.474122    2.485562
H      -1.183137   -2.332370    2.196165
H      -0.068234   -2.563830    0.831092
H       1.866052   -2.277051    2.229797
H       0.886706   -1.957927    3.674090
