19

C       0.303775    1.516973   -0.344365
C      -0.031930    0.065804   -0.003533
O      -1.412922   -0.098059    0.267658
C       0.374674   -0.908980   -1.126820
C       1.791466   -1.384987   -0.729528
O       2.097224   -0.789802    0.537699
C       0.856187   -0.488614    1.157147
C       1.038880    0.404657    2.290388
C       1.124481    1.144362    3.233893
H       1.372636    1.630325   -0.546507
H      -0.260231    1.829443   -1.227595
H       0.052869    2.182545    0.487867
H      -1.660005    0.553152    0.934000
H      -0.338506   -1.736330   -1.137862
H       0.351862   -0.431301   -2.108519
H       1.834908   -2.479790   -0.648559
H       2.567429   -1.066409   -1.430917
H       0.361197   -1.409724    1.511721
H       1.222199    1.791204    4.070747
