19

O      -0.058557    1.418862   -0.083674
C       0.022518    0.014928    0.011119
C       0.005622   -0.624178    1.424125
C      -1.513468   -0.202695    1.492802
C      -1.402410   -0.621816   -0.003923
C      -2.072721   -0.958974   -1.356176
C      -1.101569   -2.207377   -1.415635
C      -1.032427   -2.079238    0.142769
O       0.067548   -2.029855    1.071370
H       0.815788    1.778501    0.096231
H       0.782262   -0.395772   -0.663543
H       0.723976   -0.403500    2.213030
H      -2.180938   -0.790925    2.126184
H      -1.613500    0.864570    1.681015
H      -3.116346   -1.268826   -1.257879
H      -1.992978   -0.211977   -2.147459
H      -1.507653   -3.140310   -1.810533
H      -0.166395   -1.976531   -1.926314
H      -1.832191   -2.692465    0.576659
