15

C       0.042635    1.567592   -0.009731
O       1.215165    0.719307   -0.021714
C      -0.047583    0.114646    0.006063
C      -0.576728   -0.934936    0.961667
C      -1.814312   -1.216864    0.049683
C      -1.459575   -2.698654    0.058059
N      -0.063861   -2.079405    0.027838
C      -0.609120   -0.953271   -0.909922
H      -0.107004    2.135209    0.907415
H      -0.138840    2.117192   -0.932089
H      -0.501855   -1.026033    2.045192
H      -2.782619   -0.705733    0.061434
H      -1.660777   -3.274831    0.966750
H      -1.691902   -3.292448   -0.831668
H      -0.571752   -1.065598   -1.993396
