21

C      -0.379687    1.488009   -0.069169
N       0.061663    0.107318    0.070401
C       1.360575   -0.413595   -0.302492
C       2.616340    0.471235   -0.330196
C       2.895395    0.869861    1.120345
N       1.890467    1.765208    1.723608
C       1.821950    0.308998    1.981492
C       0.856082   -0.500671    1.122534
C       0.285830   -1.749871    1.756844
H       0.419920    2.229814   -0.124979
H      -0.997803    1.549042   -0.973134
H      -1.009989    1.749531    0.785685
H       1.342749   -1.260225   -0.989138
H       3.453359   -0.121416   -0.714729
H       2.513793    1.345162   -0.983447
H       3.924321    0.954605    1.457316
H       2.298926    2.225904    2.533740
H       2.019236   -0.048358    2.987177
H      -0.404176   -1.497646    2.571133
H      -0.268668   -2.328363    1.014790
H       1.077978   -2.382004    2.174976
