9

O      -0.053872   -0.014252    0.003484
C      -0.013714    1.173229    0.010130
O      -1.097349    1.992069    0.027808
C      -0.670732    3.346357    0.029915
O       0.748965    3.361859    0.011957
C       1.218233    2.087219   -0.000504
O       2.366211    1.781221   -0.017271
H      -1.051300    3.848975   -0.863992
H      -1.028424    3.838999    0.938704
