17

C       0.087768    1.149577    0.438370
O      -0.135730   -0.238361    0.246586
C      -1.420942   -0.552062   -0.184159
C      -1.522068   -2.067441   -0.366767
C      -1.932230   -2.531787    1.037443
C      -2.684200   -1.338117    1.585256
N      -3.464053   -1.336704    2.575517
O      -2.400816   -0.232291    0.817164
H       1.137002    1.266072    0.715788
H      -0.104302    1.712751   -0.486945
H      -0.547775    1.552225    1.234862
H      -1.691872    0.043560   -1.066184
H      -2.302650   -2.294604   -1.097989
H      -0.577392   -2.481200   -0.719705
H      -2.553558   -3.427001    1.059577
H      -1.054185   -2.715844    1.664213
H      -3.829889   -0.397518    2.742239
