18

C      -0.005074    1.562324   -0.002200
C       0.001325    0.032395   -0.036203
C       0.750302   -0.509932   -1.257516
O       0.702457   -1.925098   -1.310007
C       1.372868   -2.541577   -0.227396
C       0.873659   -2.064938    1.137987
O       0.743273   -2.824806    2.067619
C       0.620242   -0.568517    1.241678
H       1.015558    1.960466    0.042685
H      -0.488528    1.978036   -0.892292
H      -0.544039    1.932945    0.875259
H      -1.033198   -0.326357   -0.116204
H       0.289925   -0.157823   -2.185397
H       1.798693   -0.159661   -1.245895
H       1.216166   -3.618730   -0.309261
H       2.460880   -2.344519   -0.275987
H       1.604100   -0.101405    1.408803
H       0.018098   -0.373120    2.133289
