16

N       0.168614    1.407330    0.055432
C       0.059035   -0.019680    0.076039
C      -0.428917   -0.705876    1.298283
N      -0.737346    0.055210    2.445306
C      -1.349050   -0.702969   -0.013257
C      -2.492591    0.150848   -0.008157
C      -3.417759    0.920538    0.034789
C      -1.436550   -1.936482   -0.737968
N      -1.459142   -2.946078   -1.305140
H       0.631988    1.710114   -0.793386
H      -0.750377    1.843420    0.060725
H       0.831666   -0.526881   -0.490723
H      -0.034142   -1.700288    1.489306
H      -0.651339    1.050052    2.276257
H      -1.643478   -0.152608    2.846184
H      -4.259845    1.567746    0.057169
