13

C       0.012542    1.446287   -0.025948
C      -0.057382   -0.037534    0.023524
N      -1.104016   -0.793057   -0.125580
C      -0.628382   -2.090250    0.010212
N      -1.517243   -3.158848   -0.032434
C       0.710722   -2.048832    0.237025
O       1.083493   -0.717693    0.246558
H       0.690141    1.783084   -0.817390
H      -0.984611    1.842830   -0.217689
H       0.383470    1.854397    0.919996
H      -2.353040   -2.921444   -0.549813
H      -1.112957   -4.020084   -0.372282
H       1.487615   -2.772260    0.404365
