19

C       0.156912    1.530847    0.144206
C       0.023615    0.020116   -0.053976
C       0.652282   -0.488488   -1.370170
O       2.050812   -0.142850   -1.379473
C       2.851913   -1.294777   -1.629517
C       1.893143   -2.450499   -1.612630
C       0.653233   -2.003323   -1.472646
C      -0.022158    0.105159   -2.539047
C      -0.589638    0.569529   -3.491867
H       1.208948    1.826584    0.132246
H      -0.359084    2.078503   -0.649815
H      -0.275713    1.832492    1.102698
H       0.520655   -0.516957    0.761529
H      -1.032134   -0.275995   -0.043519
H       3.368360   -1.201916   -2.598463
H       3.626765   -1.369358   -0.852910
H       2.204081   -3.482146   -1.718091
H      -0.262149   -2.578975   -1.447544
H      -1.079967    0.984805   -4.337575
