18

N      -0.129664    1.232476    0.033501
C      -0.001403   -0.105875    0.120908
O       1.055478   -0.713838    0.199622
C      -1.330566   -0.850261    0.114481
N      -1.162079   -2.190664    0.335401
N      -2.407656   -0.179807   -0.057276
C      -3.667193   -0.839176   -0.035672
C      -4.893862    0.028497    0.120805
C      -4.603828   -0.611193   -1.208304
H       0.690724    1.810635   -0.015207
H      -1.058833    1.611667   -0.062265
H      -0.194073   -2.480746    0.289523
H      -1.849157   -2.834715   -0.017438
H      -3.716828   -1.818890    0.439893
H      -5.715787   -0.353845    0.715440
H      -4.713704    1.092856    0.216134
H      -4.230392    0.023594   -2.002958
H      -5.219618   -1.441261   -1.536633
