18

C       0.121700    1.376739   -0.106357
C       0.084508   -0.075154   -0.059127
C       0.043807   -1.277719   -0.016021
C      -0.006228   -2.709150    0.037437
N      -0.995995   -3.322720    0.544892
O       1.126282   -3.242611   -0.524075
C       1.196878   -4.642890   -0.605350
C       2.575881   -5.214881   -0.606711
C       1.675116   -5.420588    0.592994
H       1.031209    1.735828   -0.599258
H      -0.738917    1.772368   -0.656641
H       0.094205    1.802343    0.902673
H      -0.862309   -4.333181    0.520586
H       0.440609   -5.080921   -1.252604
H       2.779849   -6.054727   -1.260531
H       3.390363   -4.507980   -0.500773
H       1.900798   -4.849469    1.485995
H       1.254789   -6.403832    0.773238
