21

C       0.002457    1.569397    0.091977
C       0.014973    0.032142    0.017365
C       0.718866   -0.536840   -1.233954
C       2.171445   -0.817757   -0.785137
C       2.030633   -1.315593    0.661899
C       3.255513   -1.172562    1.575303
O       3.025899   -1.704541    2.859945
C       0.823987   -0.538187    1.189429
O       0.570280   -0.355704    2.360506
H       1.008613    1.984817   -0.029999
H      -0.629966    1.984647   -0.697965
H      -0.383222    1.898211    1.060333
H      -1.017347   -0.322407    0.109148
H       0.243018   -1.475537   -1.538429
H       0.667077    0.143264   -2.088463
H       2.681882   -1.533152   -1.434271
H       2.759766    0.108705   -0.800717
H       1.734770   -2.375938    0.661660
H       4.103776   -1.718631    1.147827
H       3.544902   -0.107879    1.618019
H       2.222276   -1.272975    3.184337
