21

C       0.141782    1.647981   -0.145600
C      -0.027109    0.129305   -0.123390
C       0.779742   -0.613884   -1.212861
C       1.030467   -1.984134   -0.587522
N       1.329232   -1.632118    0.801161
C       1.452483   -2.725863    1.732657
C       0.198146   -3.494048    1.946978
N      -0.805174   -4.054886    2.072104
C       0.430203   -0.538170    1.202753
H       1.190376    1.926225    0.010500
H      -0.176884    2.066415   -1.106135
H      -0.452806    2.128411    0.638563
H      -1.087895   -0.103463   -0.269570
H       0.248509   -0.669652   -2.166182
H       1.736207   -0.108130   -1.385550
H       0.135089   -2.625197   -0.680143
H       1.874767   -2.522431   -1.032301
H       2.220341   -3.424578    1.381429
H       1.786670   -2.348144    2.705737
H       0.969451    0.161444    1.854048
H      -0.441068   -0.906959    1.766181
