17

O       0.016587    0.061026   -0.058719
C      -0.008718    1.257373   -0.013508
C      -1.227622    2.196023    0.030737
C      -1.318233    2.721384    1.495313
C       0.045241    3.022468    2.075181
C       1.187865    2.791961    1.423843
C       1.169428    2.251478   -0.003929
C       0.603448    3.299091   -0.951260
C      -0.733659    3.266416   -0.922385
H      -2.155277    1.702566   -0.266498
H      -1.960344    3.611943    1.542446
H      -1.812863    1.959297    2.113155
H       0.066320    3.438656    3.079319
H       2.149058    2.999484    1.883567
H       2.120193    1.806231   -0.298301
H       1.219582    3.977415   -1.528461
H      -1.399354    3.914209   -1.480026
