20

C      -0.137154    1.495836   -0.028097
C       0.064077    0.014610    0.044093
C       0.774906   -0.861192   -0.928138
C       1.457971   -2.025681   -0.160890
C       0.273770   -3.011031   -0.002807
C      -0.715546   -1.925050    0.411478
C       0.110287   -0.898524    1.286929
C       1.545900   -1.452638    1.274843
N      -0.719550   -0.970108   -0.765980
H       0.707109    2.031745    0.420914
H      -0.229786    1.818221   -1.069805
H      -1.048608    1.798705    0.499306
H       1.114665   -0.508201   -1.894308
H       2.374959   -2.410603   -0.604818
H      -0.028647   -3.489398   -0.938491
H       0.453306   -3.776124    0.758817
H      -1.716154   -2.211465    0.729936
H      -0.309288   -0.540866    2.225159
H       1.740727   -2.223414    2.028393
H       2.290103   -0.656173    1.378066
