18

O       0.003655    1.576248    0.304104
C       0.105852    0.213165    0.025398
C       0.241103   -0.714235    1.244123
O      -0.916497   -0.439505    2.047164
C      -1.044237   -1.380237    0.962219
C      -1.217196   -0.588043   -0.353602
N      -2.386929    0.178966   -0.699810
C      -3.692988   -0.457077   -0.558578
C      -3.289513    0.655827    0.345445
H      -0.589244    1.654584    1.062027
H       0.888325    0.090802   -0.726163
H       1.122117   -1.078486    1.759266
H      -1.365942   -2.381160    1.226980
H      -0.993348   -1.253507   -1.195449
H      -4.390698   -0.284913   -1.373410
H      -3.737726   -1.455052   -0.125362
H      -3.068846    0.406031    1.378198
H      -3.685464    1.655105    0.186078
