16

O      -0.018853    1.459282   -0.042500
C       0.008738    0.058752   -0.006149
C       0.687294   -0.525137   -1.258045
C      -0.027898   -0.070405   -2.545332
C       0.605925   -0.589947   -3.749475
C       1.148463   -1.033242   -4.726164
C       0.714254   -0.421345    1.245555
O       1.177378    0.352301    2.048451
H       0.440312    1.752235    0.760814
H      -1.022149   -0.341443    0.043161
H       1.731068   -0.194547   -1.287219
H       0.688670   -1.619836   -1.201806
H      -1.077513   -0.392000   -2.512214
H      -0.041761    1.024594   -2.567127
H       1.618868   -1.415335   -5.597923
H       0.786836   -1.519445    1.382254
