16

N      -0.047120    1.300933   -0.126141
C      -0.011875    0.037162   -0.015136
O       1.188442   -0.637288    0.045965
C       1.221636   -1.983665    0.561849
C       0.195185   -2.785551   -0.222550
O      -0.411549   -3.956962    0.388681
C      -1.749629   -3.400300    0.204338
C      -1.118483   -2.075689   -0.129987
C      -1.245298   -0.767470    0.049867
H       0.902780    1.678691   -0.122904
H       2.252998   -2.316566    0.430340
H       0.966510   -1.997870    1.628425
H       0.554344   -3.012533   -1.235278
H      -2.280698   -3.901811   -0.615581
H      -2.356120   -3.448029    1.115054
H      -2.166235   -0.245622    0.277177
