16

C      -0.076199    1.531896   -0.094476
C       0.030682    0.034126   -0.023505
C      -0.797902   -0.789255    0.932650
C       0.703158   -0.770089    1.118591
O       1.403034   -1.822516    0.451554
C       1.138425   -1.645458   -0.867937
N       0.424200   -0.658989   -1.231210
C       1.346705   -0.253096    2.278147
C       1.869071    0.212321    3.256410
H       0.833919    1.964246   -0.519782
H      -0.920338    1.821724   -0.728010
H      -0.228142    1.955915    0.901563
H      -1.361240   -0.246435    1.683095
H      -1.252443   -1.707821    0.576036
H       1.581274   -2.388376   -1.519875
H       2.336283    0.616573    4.120198
