22

C       0.020801    1.600941    0.006313
C       0.076492    0.081812   -0.001841
C       1.105002   -0.631669   -0.925100
C       1.367178   -1.655611    0.209566
C       0.726209   -0.655708    1.203903
C       0.782921   -3.094761    0.169424
N       2.099318   -3.712105    0.565300
C       3.036514   -3.342566   -0.509214
C       2.705092   -2.316926    0.500455
H       1.014343    2.027911    0.186134
H      -0.340901    1.992035   -0.951376
H      -0.648270    1.972120    0.790902
H      -0.924631   -0.325112   -0.184448
H       0.751114   -1.018614   -1.884953
H       1.984899   -0.003559   -1.105795
H       1.488453   -0.030853    1.684295
H       0.070672   -1.061191    1.980154
H       0.032444   -3.286574    0.940446
H       0.407006   -3.454675   -0.795720
H       3.997252   -3.841346   -0.423048
H       2.664122   -3.245997   -1.527725
H       3.423996   -1.973478    1.239674
