17

N      -0.066046    1.464520   -0.066217
C      -0.016441    0.010851   -0.019651
C       0.961230   -0.529957   -0.971948
N       1.745609   -0.876525   -1.749316
C      -0.070821   -0.671638    1.385818
C      -1.537184   -0.171624    1.529069
C      -1.410150   -0.750800    0.086560
O      -2.368488   -0.861999   -0.890634
C      -0.642570   -1.945809    0.691808
H       0.825945    1.854839    0.225677
H      -0.205370    1.771751   -1.025015
H       0.719042   -0.628748    2.131394
H      -2.165728   -0.750849    2.207838
H      -1.683533    0.901973    1.623695
H      -2.834986   -0.021743   -0.963327
H       0.023927   -2.502267    0.031451
H      -1.228373   -2.606951    1.331995
