22

C      -0.019556    1.536689   -0.002377
C      -0.007777   -0.003831    0.007737
C       0.749546   -0.526624    1.243290
C      -1.453179   -0.517611    0.049151
N       0.671696   -0.488528   -1.214601
C       0.145899   -1.283945   -2.208848
C       1.114636   -1.498053   -3.161915
C       2.280498   -0.808246   -2.737947
C       1.978296   -0.199759   -1.542625
H       0.994477    1.944218   -0.016799
H      -0.547333    1.910725   -0.884299
H      -0.523358    1.918039    0.891263
H       0.260481   -0.184632    2.160726
H       0.768758   -1.620175    1.247426
H       1.782567   -0.170039    1.259568
H      -2.033080   -0.160786   -0.806542
H      -1.492774   -1.610262    0.068362
H      -1.935009   -0.148399    0.958396
H      -0.869438   -1.636302   -2.166011
H       0.993594   -2.084697   -4.059773
H       3.231481   -0.760871   -3.246431
H       2.589026    0.414346   -0.901562
