16

C       0.029833    1.337166    0.243669
N      -0.033725   -0.100816    0.045006
C      -1.203267   -0.772724   -0.001170
C      -1.409940   -2.151348   -0.005838
C      -0.381200   -3.229198    0.035225
O       0.656452   -2.927915    0.979368
N      -2.754989   -2.323192   -0.066173
N      -3.407486   -1.268867   -0.110051
O      -2.346866   -0.136886   -0.058880
H       1.047204    1.674963    0.037183
H      -0.650206    1.833366   -0.451763
H      -0.243475    1.637816    1.263853
H       0.745112   -0.669758    0.347334
H      -0.864804   -4.191589    0.245447
H       0.148024   -3.329676   -0.919772
H       0.245485   -2.891993    1.850721
