18

C      -0.017456    1.540959    0.092258
C       0.012735    0.086667    0.066852
C       0.037541   -1.117196    0.053092
C       0.030594   -2.564063    0.018441
N       0.259265   -3.283785    1.310099
C      -0.868676   -4.232221    1.089993
C      -1.809599   -4.437195    2.267252
C      -1.332858   -3.319595   -0.056303
O      -2.329276   -3.199951   -0.696105
H       0.731777    1.969860   -0.582151
H      -0.998347    1.921083   -0.213719
H       0.185005    1.920500    1.099814
H       0.667552   -2.928780   -0.804534
H       1.171875   -3.719970    1.374463
H      -0.558554   -5.205085    0.674804
H      -2.123711   -3.473379    2.675682
H      -2.696878   -4.992611    1.947904
H      -1.316360   -5.003297    3.063350
