16

C      -0.030060    1.562152   -0.013332
N       0.026733    0.062570    0.053432
H      -0.938568   -0.278761    0.092812
C       0.675675   -0.497920   -1.156015
C       1.725694   -1.225929   -0.811029
C       1.885877   -1.263780    0.699750
O       2.770026   -1.877787    1.270244
C       0.805456   -0.471421    1.206759
C       0.272097   -0.268083    2.507281
O       0.739318   -0.637915    3.569680
H       0.996818    1.922195   -0.058416
H      -0.592566    1.866796   -0.900468
H      -0.518041    1.930926    0.887770
H       0.248647   -0.215240   -2.107022
H       2.393074   -1.744029   -1.485770
H      -0.705347    0.297603    2.494809
