11

O       0.100618    1.357028    0.081544
C       0.077493    0.023706    0.019046
N       0.079934   -0.743541   -1.030609
N       0.049153   -2.095314   -0.616050
C       0.030311   -2.025181    0.673375
O      -0.001489   -2.880648    1.714541
N      -0.006011   -2.097259    2.900140
C       0.022289   -0.856806    2.533503
N       0.045947   -0.738516    1.164804
H       0.120701    1.681709   -0.829282
H       0.026190   -0.035744    3.232143
