21

C      -0.063966   -1.115411    0.084897
C      -0.003660    0.082691    0.157912
C       0.104279    1.532859    0.237610
C       1.516655    2.030621   -0.089992
O       1.508056    3.433685    0.020048
C       2.761038    4.024958   -0.270527
C       2.635313    5.519782   -0.174769
C       2.737826    6.198274    1.166030
C       3.850919    6.347333    0.160032
H      -0.131652   -2.173143    0.023995
H      -0.602078    2.006479   -0.454398
H      -0.164024    1.880627    1.242180
H       2.244007    1.582809    0.606617
H       1.801298    1.713849   -1.106546
H       3.527432    3.663954    0.437687
H       3.091245    3.727109   -1.280669
H       1.933406    5.949369   -0.883448
H       2.098109    7.051847    1.359364
H       2.917284    5.572149    2.033667
H       4.783749    5.827431    0.353502
H       3.973687    7.300555   -0.341506
