22

C       1.257449    0.989888    0.752127
C       0.507369   -0.307745    0.423548
C       0.796738   -0.731787   -1.014638
C       1.598910   -2.002438   -1.013795
C       1.828112   -2.432844    0.425125
C       0.949944   -1.518733    1.322554
O       1.573663   -1.160489    2.544691
N       0.259053   -1.959745   -1.574752
C      -0.878115   -2.676136   -1.027967
H       2.334567    0.893254    0.565098
H       0.896186    1.810696    0.125225
H       1.116147    1.269692    1.798541
H      -0.563857   -0.124171    0.571147
H       0.963284    0.064544   -1.738013
H       2.391464   -2.197502   -1.732920
H       1.621912   -3.493838    0.601314
H       2.885743   -2.278533    0.675536
H       0.060149   -2.063471    1.647521
H       2.408053   -0.725620    2.340258
H      -0.945385   -2.722349    0.068517
H      -1.796036   -2.207627   -1.397694
H      -0.856353   -3.704280   -1.403685
