20

C      -0.191131    1.436316   -0.016833
N       0.069534    0.006358    0.012765
C       1.022484   -0.509033   -0.994406
C       2.417177    0.009329   -0.529024
C       2.267536   -0.008280    1.020841
C       0.790590   -0.502505    1.193885
C       0.820439   -1.992927    0.842772
O       0.801649   -2.931228    1.592625
C       0.927800   -2.016366   -0.693000
H       0.701595    2.075464    0.085762
H      -0.677311    1.689619   -0.964457
H      -0.882462    1.693290    0.791748
H       0.743882   -0.228292   -2.011266
H       3.230991   -0.626893   -0.885946
H       2.606327    1.018877   -0.902576
H       2.980535   -0.670859    1.517627
H       2.390811    0.986546    1.455281
H       0.319555   -0.274508    2.148881
H       0.016793   -2.452215   -1.113493
H       1.782371   -2.612815   -1.022629
