17

C      -0.173279    1.515620    0.060015
C      -0.034807    0.012988   -0.021567
C      -0.101020   -0.601650   -1.237023
C       0.001997   -1.991865   -1.555007
C       0.190530   -3.073843   -0.759317
C       0.351009   -3.170498    0.694356
O       0.513018   -4.269185    1.219645
C       0.321397   -1.967527    1.540275
C       0.161813   -0.657028    1.238417
H       0.718506    1.966582    0.511369
H      -0.320112    1.963330   -0.924944
H      -1.023086    1.796208    0.693608
H      -0.253781    0.046703   -2.096281
H      -0.087542   -2.205557   -2.618397
H       0.236502   -4.049739   -1.235882
H       0.455483   -2.223238    2.588666
H       0.184712    0.018106    2.092863
