21

C       0.432596    1.128840    0.362568
O       0.286565   -0.218242   -0.027771
C       0.657074   -0.564212   -1.381940
C      -0.401441   -0.063770   -2.361367
C       2.083549   -0.164072   -1.700763
C       2.938637   -1.156141   -1.448397
C       2.241551   -2.392423   -0.941120
C       0.767107   -2.120737   -1.339130
O      -0.209295   -2.724747   -0.531357
H       1.477672    1.462180    0.306098
H      -0.185911    1.810235   -0.238078
H       0.102110    1.192217    1.402523
H      -0.499399    1.025983   -2.338128
H      -0.137943   -0.349883   -3.384092
H      -1.371177   -0.505548   -2.114174
H       2.350754    0.819268   -2.071955
H       4.013695   -1.097955   -1.584477
H       2.627965   -3.321252   -1.373011
H       2.331546   -2.484754    0.148815
H       0.611574   -2.496006   -2.356884
H      -0.315441   -2.133264    0.226429
