18

O       0.085424    1.355012    0.253697
C      -0.003864   -0.043970    0.012997
C      -1.489597   -0.424637   -0.007542
O      -2.314029    0.383601   -0.816238
C      -2.109797    0.275831   -2.208211
C      -0.793227    0.895624   -2.684329
N       0.374241    0.059552   -2.436399
C       0.794389   -0.445676   -1.243132
O       1.777745   -1.161513   -1.153135
H       1.013302    1.566221    0.402139
H       0.463567   -0.621927    0.821539
H      -1.572490   -1.488499   -0.286435
H      -1.880766   -0.304021    1.006719
H      -2.160103   -0.776298   -2.534952
H      -2.942965    0.819050   -2.666065
H      -0.850908    1.047628   -3.765852
H      -0.679635    1.875212   -2.206931
H       0.959436   -0.198997   -3.216537
