21

C      -0.046961    1.567743    0.009315
C       0.023835    0.040609   -0.054727
C       0.806446   -0.457345   -1.280307
C       0.895616   -1.982675   -1.283664
O       1.475716   -2.484942   -0.078189
C       0.824589   -2.084863    1.100972
C       0.665780   -0.551885    1.210650
C      -0.509231   -2.785706    1.338580
O      -1.066141   -3.521728    0.567712
H       0.956316    2.003931    0.081497
H      -0.523777    1.977863   -0.887138
H      -0.620338    1.905493    0.879389
H      -1.002483   -0.348644   -0.131945
H       0.329274   -0.118858   -2.207766
H       1.818756   -0.031802   -1.261324
H      -0.096064   -2.426498   -1.433016
H       1.550175   -2.338150   -2.084276
H       1.469143   -2.422711    1.927019
H       1.663089   -0.117697    1.349591
H       0.080637   -0.299621    2.103572
H      -0.946450   -2.558097    2.341788
