20

C      -0.117036    1.524848   -0.047370
C      -0.033822    0.000374   -0.137787
C       0.864634   -0.510187   -1.290293
C       2.248874   -0.058648   -1.132729
C       3.387814    0.296149   -0.979755
C       0.803781   -2.029537   -1.411263
C      -0.325488   -2.679710   -2.168693
C       1.077629   -2.704679   -2.726886
H       0.872792    1.962875    0.109867
H      -0.530289    1.954375   -0.967108
H      -0.761084    1.832752    0.781911
H       0.344835   -0.409716    0.806138
H      -1.033263   -0.423968   -0.286987
H       0.476001   -0.086008   -2.228576
H       4.394218    0.611903   -0.858308
H       1.153492   -2.548592   -0.522981
H      -0.746093   -3.600492   -1.780056
H      -1.050567   -2.033295   -2.653473
H       1.293485   -2.073496   -3.582771
H       1.620274   -3.643249   -2.721874
