21

O       0.018700    1.160443   -0.780311
C      -0.005773   -0.093851   -0.172284
C      -0.178868   -0.219186    1.319224
C      -1.292297   -0.665030    0.379458
C      -2.554101    0.115029    0.279073
C      -3.095643    0.605207   -0.845335
C      -4.426967    1.275429   -0.606636
C      -4.467643    1.426587    0.936150
C      -3.453137    0.388409    1.472335
H      -0.878318    1.516681   -0.744976
H       0.679953   -0.778774   -0.662771
H       0.380925   -0.973148    1.862506
H      -0.330415    0.710195    1.859119
H      -1.415792   -1.741351    0.276801
H      -2.671634    0.478964   -1.836634
H      -4.528836    2.233856   -1.127701
H      -5.244614    0.639388   -0.975903
H      -4.134616    2.433099    1.209392
H      -5.470602    1.295749    1.349566
H      -3.946382   -0.543663    1.784870
H      -2.899213    0.744870    2.347088
