15

O       0.113988    1.383605    0.087361
C       0.070522    0.008013    0.074543
C       0.926781   -0.749062    1.067497
C       0.668207   -2.033152    0.807849
C      -0.336205   -1.984472   -0.334597
C      -1.295146   -0.773188   -0.062815
N      -1.337148   -0.356244   -1.515083
C       0.086622   -0.805514   -1.279010
H      -0.493749    1.668561   -0.610665
H       1.580543   -0.295787    1.798216
H       1.063699   -2.920624    1.280773
H      -0.742660   -2.896087   -0.772156
H      -2.174472   -0.729515    0.586245
H      -1.840486   -1.054555   -2.068384
H       0.842706   -0.800099   -2.069395
