17

C      -0.102993    1.367742   -0.074485
O      -0.049834   -0.051962   -0.169192
C       0.751257   -0.585798   -1.181920
C       2.220939   -0.205272   -1.080685
C       0.459721   -2.097117   -1.203353
O      -0.500829   -2.252789   -2.246670
C      -0.563550   -1.121853   -2.990288
O      -1.226705   -0.983480   -3.966079
O       0.260620   -0.169821   -2.469092
H       0.831292    1.786672    0.318851
H      -0.328496    1.823170   -1.043949
H      -0.909771    1.593065    0.624998
H       2.614485   -0.510736   -0.107215
H       2.792585   -0.699063   -1.869281
H       2.354342    0.872584   -1.191367
H       1.348113   -2.690874   -1.438087
H       0.023395   -2.422448   -0.258900
