17

O      -0.042747   -0.013831    0.311376
C      -0.032090    1.169888    0.071288
N      -1.126839    1.970141   -0.191182
C      -0.873284    3.400300   -0.088028
C       0.676136    3.426474   -0.044529
C       1.464078    3.697339    1.246637
C       1.064243    2.738604    2.342389
C       1.910265    2.239093    1.209142
N       1.109044    2.003929   -0.008088
H      -2.046550    1.567708   -0.118214
H      -1.264109    3.942077   -0.955583
H      -1.317437    3.840080    0.815670
H       1.098782    3.952671   -0.904414
H       2.057541    4.582258    1.432627
H       1.594215    2.884253    3.278183
H       0.038850    2.399583    2.459869
H       2.889449    1.793568    1.322211
