21

C      -0.065878    1.568092   -0.221761
C       0.045371    0.045521   -0.122711
C       0.681233   -0.447569    1.175820
O      -0.129862   -0.009416    2.292631
C       0.392172    0.841800    3.196015
O      -0.215087    1.222079    4.151047
C       0.757149   -1.983020    1.263979
C       1.549040   -2.470151    2.478819
O      -0.545410   -2.544835    1.228115
H       0.915675    2.049735   -0.141036
H      -0.498371    1.861377   -1.182517
H      -0.706496    1.972821    0.566840
H      -0.938873   -0.423115   -0.217268
H       0.654697   -0.339208   -0.949838
H       1.689642   -0.023665    1.286496
H       1.429358    1.142090    2.951685
H       1.250107   -2.336465    0.350341
H       1.090331   -2.125629    3.411514
H       1.564129   -3.562544    2.492702
H       2.583206   -2.109563    2.451640
H      -1.035517   -2.158234    1.964398
