19

C      -0.428849    1.547397   -0.044924
C      -0.017635    0.078470   -0.037421
O       0.725285   -0.275376   -1.230951
C       2.022614   -0.696804   -0.816833
C       2.784726    0.502562   -0.194160
C       2.325167    0.224480    1.252508
O       2.849675   -1.131709    1.420278
C       1.785437   -1.496452    0.512118
C       0.886918   -0.389200    1.094212
H       0.432142    2.216704    0.030701
H      -0.962212    1.781445   -0.970454
H      -1.099112    1.755096    0.796347
H      -0.931078   -0.533853   -0.034801
H       2.499710   -1.210903   -1.649513
H       3.871806    0.412568   -0.252063
H       2.467857    1.448759   -0.634352
H       2.601945    0.908788    2.053757
H       1.545037   -2.557480    0.473574
H       0.407360   -0.617564    2.044491
