18

C      -0.093139    1.589651   -0.047184
C      -0.251126    0.097646   -0.299140
C      -0.056875   -0.879690    0.829418
C      -1.437022   -0.642925    0.264396
C       1.336243    2.038321   -0.033370
C       2.111499    2.578354   -1.034050
N       3.323095    2.755335   -0.454878
N       3.317347    2.358708    0.829939
N       2.117668    1.924486    1.084441
H      -0.647898    2.154596   -0.805780
H      -0.539289    1.837303    0.922487
H       0.097855   -0.225663   -1.276662
H       0.431800   -1.823671    0.615670
H       0.174246   -0.472161    1.807398
H      -2.143472   -0.081897    0.867999
H      -1.891683   -1.423605   -0.335622
H       1.911094    2.842461   -2.058728
H       4.167246    3.138047   -0.849362
