23

C       0.258237    1.331992    0.243287
O       0.225385   -0.074631    0.092492
C       0.651458   -0.580589   -1.166290
C      -0.234035   -0.100854   -2.311065
O       1.978039   -0.175233   -1.448674
C       2.911618   -1.088092   -0.851099
C       2.084894   -2.237467   -0.252137
C       0.742380   -2.111473   -0.992760
C      -0.444768   -2.778224   -0.303975
H       1.212321    1.748910   -0.098880
H      -0.560666    1.827001   -0.296972
H       0.139077    1.535769    1.310463
H      -0.128422    0.976194   -2.460545
H       0.055528   -0.596750   -3.240496
H      -1.282910   -0.323814   -2.098005
H       3.589308   -1.434140   -1.641069
H       3.510921   -0.563491   -0.098361
H       2.559701   -3.211483   -0.393663
H       1.928159   -2.086347    0.819435
H       0.858857   -2.527365   -2.001515
H      -0.601368   -2.355128    0.690505
H      -1.367393   -2.642886   -0.878194
H      -0.275528   -3.855156   -0.201928
