15

N      -0.164558    1.341867   -0.050778
C       0.129052    0.014954   -0.038145
O       1.247096   -0.449292    0.027608
O      -1.025284   -0.696244   -0.137706
C      -1.033041   -2.069831   -0.188848
C      -2.148722   -2.862783   -0.280924
C      -1.673296   -4.206873   -0.305681
C      -0.302353   -4.171007   -0.228398
N       0.084945   -2.852004   -0.157110
H       0.580727    1.976424    0.175192
H      -1.116522    1.645089    0.057939
H      -3.168503   -2.517214   -0.326047
H      -2.280040   -5.096326   -0.373839
H       0.432422   -4.958911   -0.217001
H       1.011333   -2.463277   -0.086101
