19

C      -0.502419    1.059770   -0.047059
O       0.227434   -0.166000   -0.052054
C       0.867642   -0.472365   -1.200513
N       1.434769   -1.725960   -1.109428
N       0.858494    0.322952   -2.196512
C       1.496811   -0.107500   -3.439319
C       1.186131    0.921040   -4.537616
C       2.951710   -0.296091   -3.303812
C       4.136045   -0.466554   -3.170377
H       0.164139    1.909922   -0.213333
H      -1.266300    1.061295   -0.829106
H      -0.963539    1.120906    0.939879
H       1.486420   -2.085864   -0.167912
H       2.286674   -1.843377   -1.641018
H       1.078169   -1.078627   -3.754764
H       1.593004    1.896796   -4.260994
H       1.616943    0.614527   -5.494678
H       0.102521    1.016177   -4.643428
H       5.185056   -0.595881   -3.065603
