22

C      -0.463890    1.259784   -0.568925
O      -0.696273   -0.128067   -0.557614
C      -0.756511   -0.668147    0.743069
C      -0.956927   -2.183948    0.649752
O      -0.904826   -2.747453    1.957428
C      -2.213121   -2.607672   -0.140311
C      -2.178066   -4.116098   -0.418573
C      -3.521295   -2.211775    0.561300
H      -0.431951    1.578923   -1.613534
H      -1.264657    1.812780   -0.052306
H       0.493258    1.516833   -0.088423
H       0.175097   -0.470875    1.297096
H      -1.578208   -0.203275    1.318338
H      -0.081936   -2.596273    0.133811
H      -1.659146   -2.411914    2.453616
H      -2.162901   -2.069268   -1.093742
H      -2.141256   -4.679379    0.519295
H      -3.064408   -4.435904   -0.975748
H      -1.295216   -4.389699   -1.005985
H      -3.590106   -1.134175    0.740567
H      -4.382405   -2.495290   -0.051528
H      -3.635448   -2.728362    1.522552
