18

C       0.035824    1.434992   -0.009295
N       0.021109   -0.012109   -0.026005
C      -0.007638   -0.826774   -1.153233
C      -0.030267   -0.257880   -2.531651
C      -0.013561   -2.135364   -0.726498
C       0.027206   -2.122756    0.698694
O      -0.025954   -3.166944    1.603745
C       0.050404   -0.809055    1.089014
O       0.076915   -0.250998    2.327645
H       0.948582    1.831808   -0.467787
H      -0.827337    1.843080   -0.545287
H      -0.006866    1.770118    1.027079
H       0.853175    0.356180   -2.753322
H      -0.053030   -1.072850   -3.259009
H      -0.910983    0.371694   -2.717164
H      -0.048165   -3.005878   -1.364235
H       0.726654   -3.747156    1.448745
H       0.044035   -0.986602    2.951171
