23

C      -0.630062    1.240951   -0.043142
C       0.177537   -0.050655   -0.091162
C       1.614149   -0.027649   -0.681066
C       2.051480   -1.044822    0.405234
C       0.759534   -0.711886    1.213312
C       1.023541    0.310486    2.315426
O       1.804732   -0.315236    3.340836
C      -0.021132   -1.916414    1.748694
O       0.744657   -2.758957    2.587577
H      -0.081721    2.052918    0.446281
H      -0.866670    1.577524   -1.058750
H      -1.579684    1.108497    0.487124
H      -0.412156   -0.814040   -0.612279
H       1.727822   -0.322281   -1.727277
H       2.090777    0.949683   -0.551683
H       2.040964   -2.077057    0.047231
H       3.001602   -0.867601    0.912799
H       1.563479    1.181407    1.916725
H       0.068263    0.668949    2.727956
H       1.876841    0.289078    4.085112
H      -0.937876   -1.562471    2.256845
H      -0.345548   -2.538096    0.905554
H       1.193376   -2.176217    3.214582
