16

O       0.059352   -0.012189    0.070411
C       0.013774    1.195874    0.080901
N      -1.173589    1.961225    0.090344
C      -0.852839    3.333999   -0.197288
C      -1.012301    4.616910    0.672786
C      -0.233501    4.574271    1.950323
C       0.528677    4.777817    0.650539
C       0.622778    3.399147    0.054917
C       1.150233    2.179670    0.177135
H      -2.007590    1.509967   -0.255415
H      -1.100889    3.613020   -1.231013
H      -1.765204    5.373414    0.488000
H      -0.327924    5.458969    2.573095
H      -0.113802    3.646501    2.500527
H       1.137091    5.650792    0.458299
H       2.150166    1.866229    0.441270
