21

C       0.007894    1.588437    0.124807
C       0.118692    0.079282    0.087224
C       1.310727   -0.713189   -0.342965
C       2.702570   -0.096233   -0.396078
C       2.977626    0.527452    0.998514
C       1.953808   -0.099043    1.981111
C       0.868860   -0.747745    1.134093
C       0.189347   -1.949327    1.654164
O       0.395428   -2.453456    2.733028
H       0.939745    2.080824    0.403709
H      -0.283739    1.967558   -0.860821
H      -0.760921    1.900816    0.839248
H      -0.819486   -0.392021   -0.205259
H       1.126084   -1.578707   -0.972032
H       3.423090   -0.892125   -0.611846
H       2.800483    0.641139   -1.200487
H       4.005976    0.341652    1.320231
H       2.865557    1.614024    0.962251
H       2.406733   -0.884984    2.592209
H       1.552929    0.642861    2.679404
H      -0.558871   -2.388873    0.951408
