20

C      -0.261091    1.542921    0.232437
C       0.001670    0.053867   -0.011045
C       0.909298   -0.536202    1.055312
O       0.326938   -0.478827    2.385404
C       0.343755   -1.912712    2.521379
C       1.024542   -2.076296    1.142068
O       0.308475   -2.751875    0.145547
C       0.377866   -4.155806    0.264102
H       0.667110    2.124094    0.189785
H      -0.945294    1.950135   -0.517796
H      -0.705963    1.694852    1.219918
H      -0.939454   -0.503950   -0.025991
H       0.472949   -0.100799   -0.989515
H       1.881830   -0.023700    1.049075
H       0.920274   -2.236297    3.396507
H      -0.666701   -2.339241    2.571247
H       2.056404   -2.452300    1.193588
H      -0.183655   -4.580157   -0.571223
H       1.418073   -4.514245    0.215407
H      -0.065668   -4.513362    1.205602
