16

O       0.008683    1.499012    0.032453
C       0.101639    0.090156    0.133893
C      -1.258048   -0.547061    0.038997
C      -2.319158   -0.409554    1.150575
N      -2.759412   -1.817268    0.911615
C      -1.640167   -2.044767   -0.041767
C      -2.106210   -1.688938   -1.462632
O      -2.554359   -2.221581   -2.421730
O      -1.835162   -0.338592   -1.299608
H      -0.391884    1.694534   -0.822849
H       0.758696   -0.336164   -0.639780
H       0.547520   -0.125189    1.110267
H      -1.863244   -0.241259    2.132722
H      -3.098479    0.337417    0.980096
H      -2.704874   -2.406996    1.732242
H      -0.987188   -2.904470    0.106625
