19

O       0.031976    1.445201   -0.173145
C       0.088779    0.045699   -0.003552
C      -1.310611   -0.550677    0.108953
O      -1.999577   -0.172729   -1.072317
C      -1.308703   -2.072647    0.252753
N      -2.695437   -2.546054    0.216697
C      -2.814191   -3.995089    0.084271
C      -4.220866   -4.406046    0.062119
N      -5.329327   -4.729722    0.066530
H      -0.599059    1.599375   -0.886622
H       0.614277   -0.442836   -0.841206
H       0.657818   -0.145559    0.912571
H      -1.802420   -0.106172    0.993018
H      -2.776769   -0.745832   -1.124171
H      -0.785118   -2.509370   -0.606472
H      -0.767392   -2.377225    1.164394
H      -3.184255   -2.244610    1.054860
H      -2.348120   -4.301202   -0.859954
H      -2.305620   -4.561880    0.883866
