19

C      -0.724751    1.508439    0.076172
C      -0.263239    0.066226   -0.039963
C       0.538425   -0.453227   -1.282161
C       0.913159    0.476366   -2.449474
C      -0.245690    0.846776   -3.260395
N      -1.178545    1.125713   -3.883162
C       1.639738   -0.828192   -0.295228
C       2.059586    0.318068    0.533871
N       0.824800   -0.389154    0.911122
H       0.071804    2.235830   -0.104995
H      -1.525559    1.708547   -0.642233
H      -1.115865    1.688064    1.082678
H      -1.119587   -0.588655    0.138091
H       0.054763   -1.341694   -1.693782
H       1.392399    1.392438   -2.090778
H       1.643165   -0.025542   -3.095876
H       2.180251   -1.769382   -0.300673
H       2.865811    0.146472    1.240327
H       2.015827    1.334345    0.152590
