15

C      -0.147772    1.400942    0.030422
N      -0.090367   -0.049123   -0.018360
C       0.590768   -0.599336   -0.955057
C       1.354972    0.034676   -2.032381
C       2.021975   -0.688621   -2.945402
O       2.057872   -2.038951   -2.966349
C       1.367084   -2.694785   -1.990705
C       0.671991   -2.056438   -1.036823
F       0.027328   -2.771507   -0.124127
H       0.845185    1.858637    0.157949
H      -0.595234    1.836459   -0.876119
H      -0.762964    1.705443    0.880799
H       1.391992    1.113120   -2.106913
H       2.600796   -0.271942   -3.760001
H       1.441133   -3.769669   -2.070722
