19

C       0.420777    1.767622   -0.326504
C       0.054966    0.354108    0.084087
C       1.103502   -0.731635   -0.031130
C       0.685755   -0.207891    1.330146
N      -1.348947    0.094161   -0.120290
C      -1.700103   -0.813687   -0.929115
N      -3.049763   -1.063659   -1.151124
C      -3.525609   -2.033349   -2.001942
O      -2.835148   -2.781903   -2.652084
H       1.460957    1.991340   -0.072962
H       0.294895    1.906317   -1.405872
H      -0.224449    2.489560    0.183839
H       0.799911   -1.740273   -0.287038
H       2.081156   -0.458497   -0.413768
H       1.375547    0.418967    1.885420
H       0.074039   -0.860273    1.943800
H      -1.043812   -1.463473   -1.510098
H      -3.701705   -0.481903   -0.643555
H      -4.631626   -2.048680   -2.022228
