23

C       0.438393    1.650107   -0.048055
C       0.011064    0.190503    0.084845
C       0.750163   -0.808660   -0.862344
C       1.580101   -1.345230    0.342733
C       0.655835   -0.551320    1.271533
O       1.086005    0.093558    2.462557
C       0.070689   -0.930220    2.568142
C      -1.299460   -0.423912    2.961790
C       0.522258   -2.193944    3.266923
H       1.529406    1.746539   -0.035231
H       0.071997    2.077593   -0.987306
H       0.048964    2.250811    0.779358
H      -1.081231    0.119865    0.048741
H       0.087478   -1.561492   -1.294862
H       1.325341   -0.347902   -1.668800
H       1.608975   -2.429153    0.479517
H       2.605507   -0.965786    0.365889
H      -1.545432    0.499798    2.434321
H      -2.069236   -1.170481    2.736482
H      -1.336762   -0.221731    4.038009
H       0.531071   -2.046846    4.352661
H      -0.158989   -3.024095    3.048945
H       1.529363   -2.477531    2.954691
