20

C       0.120553    1.368115   -0.215511
C       0.087960   -0.112300    0.171215
C       0.683182   -0.375663    1.550298
O       0.617871   -1.737908    1.918937
C       1.886851   -2.318851    1.666738
C       2.833811   -1.140361    1.605859
O       2.065957   -0.005965    1.587244
N       4.086974   -1.203184    1.577937
C       4.874834    0.015713    1.495365
H       1.147652    1.741905   -0.241129
H      -0.324510    1.523517   -1.202015
H      -0.440220    1.977347    0.502110
H      -0.942036   -0.486043    0.188900
H       0.635024   -0.715382   -0.563603
H       0.165354    0.210173    2.320023
H       2.142266   -3.003644    2.478824
H       1.901984   -2.878276    0.720722
H       5.493208    0.104192    2.396050
H       5.563153   -0.062760    0.646572
H       4.282673    0.931520    1.386859
