19

C      -0.026347    1.684821    0.416632
N       0.015243    0.236711    0.557152
C       1.050622   -0.598759   -0.026875
C       2.446910    0.047281    0.041747
C       2.282200    0.184806    1.589215
C       0.892882   -0.470734    1.471834
C       0.233355   -1.392097    2.466156
O      -0.945144   -1.955004    1.936558
H       0.949619    2.184418    0.471997
H      -0.479871    1.930913   -0.548423
H      -0.663330    2.097588    1.204923
H       0.745674   -1.397615   -0.694512
H       3.236675   -0.656969   -0.227091
H       2.592382    0.965746   -0.534406
H       2.989093   -0.442780    2.136693
H       2.312453    1.191616    2.016300
H       0.914637   -2.211330    2.728855
H       0.032368   -0.831206    3.397701
H      -1.295718   -1.273799    1.342388
