19

C       0.057585    1.562233   -0.268385
C      -0.083321    0.055084    0.041143
C      -1.550830   -0.370801    0.120694
C       0.671757   -0.729767   -1.025451
O       0.119204   -1.231710   -1.984762
C       2.156976   -0.847171   -0.863071
C       2.727016   -2.225247   -1.028480
N       2.943209   -1.211585   -2.050111
H       1.104445    1.876132   -0.322898
H      -0.417866    1.801360   -1.224965
H      -0.430864    2.153008    0.512124
H       0.413179   -0.136764    1.002205
H      -2.041603   -0.233274   -0.845960
H      -1.644262   -1.426706    0.390282
H      -2.081430    0.223235    0.870884
H       2.638126   -0.162010   -0.171599
H       3.602065   -2.501204   -0.447118
H       2.019965   -3.025247   -1.229675
H       2.269699   -1.367555   -2.802051
