20

C       0.322994    1.549896    0.165737
C      -0.091176    0.096186   -0.059821
N       0.559373   -0.493722   -1.217640
C       1.492287   -1.463429   -1.282266
N       1.841273   -1.692508   -2.533434
C       1.069423   -0.805438   -3.230961
C       1.101404   -0.694308   -4.721994
C       0.655245   -1.987774   -5.421295
N       0.276758   -0.058660   -2.472009
H       1.397773    1.625616    0.354807
H       0.083388    2.150368   -0.714560
H      -0.210622    1.961863    1.027268
H       0.168281   -0.525968    0.801831
H      -1.172929    0.024584   -0.208950
H       1.876147   -1.964282   -0.405319
H       0.463371    0.143639   -5.016674
H       2.124146   -0.450652   -5.033649
H       1.281205   -2.827734   -5.108556
H      -0.383012   -2.229095   -5.172693
H       0.730146   -1.886333   -6.508174
