21

C       0.069768    1.599533   -0.217681
C       0.044180    0.104901   -0.131962
C      -0.985485   -0.688642    0.189177
C      -2.388017   -0.313642    0.548258
C      -0.596526   -2.166378    0.070089
C       0.956729   -2.116199    0.001083
C       1.279061   -0.693774   -0.496652
C      -1.104900   -3.021597    1.137933
C      -1.516625   -3.723333    2.023890
H       0.845017    2.016330    0.438193
H       0.317351    1.928919   -1.235571
H      -0.884021    2.055311    0.057484
H      -2.526934    0.767963    0.609981
H      -3.100143   -0.702013   -0.192380
H      -2.673730   -0.753839    1.510296
H      -0.998847   -2.552467   -0.881045
H       1.352917   -2.256051    1.010367
H       1.369778   -2.907498   -0.628768
H       1.442840   -0.666664   -1.584527
H       2.192183   -0.289321   -0.043159
H      -1.880292   -4.346237    2.802971
