18

C      -0.145274    1.391081   -0.071146
C       0.005343   -0.118007    0.170128
C       0.682130   -0.840256   -0.979622
C       1.838414   -1.407852   -0.630526
C       2.112994   -1.212623    0.825702
C       0.932342   -0.417704    1.357806
N       1.151045   -1.790408    1.746609
C       0.343233   -2.893479    1.563291
O       0.691899   -3.938710    1.072913
H       0.832262    1.858669   -0.226391
H      -0.755055    1.585286   -0.958535
H      -0.627336    1.878231    0.783096
H      -0.994042   -0.540151    0.348969
H       0.229008   -0.893572   -1.963600
H       2.495518   -1.970785   -1.280736
H       3.125880   -1.106936    1.201645
H       1.036343    0.325393    2.144098
H      -0.663027   -2.732156    2.000845
