19

C      -0.048450    1.419439   -0.437941
C      -0.107010   -0.047375    0.000961
C      -1.516829   -0.563495    0.259597
C      -2.273513    0.139222    1.370119
O      -2.318849   -0.504325   -1.007715
C      -2.344283   -1.858632   -1.119853
O      -2.739583   -2.526725   -2.024531
C      -1.661822   -2.113697    0.226165
O      -0.483456   -2.873198    0.201803
H       0.978078    1.695950   -0.694175
H      -0.673996    1.584575   -1.319790
H      -0.384802    2.100253    0.349691
H       0.354168   -0.683708   -0.759575
H       0.477856   -0.199729    0.916015
H      -2.396552    1.202645    1.151731
H      -3.268410   -0.296980    1.497360
H      -1.729210    0.041857    2.314940
H      -2.365037   -2.479821    0.987332
H      -0.602904   -3.577614   -0.445657
