16

O      -0.003085    1.420242    0.010363
C      -0.002623    0.018813    0.003565
C      -1.454325   -0.454491    0.012148
O      -2.396952    0.292010    0.023120
N      -1.625038   -1.851890    0.007867
C      -0.648013   -2.845110   -0.003787
C      -1.275352   -4.056347   -0.003839
C      -2.688536   -3.811881    0.008171
C      -2.874480   -2.461439    0.015145
H       0.911816    1.716482    0.002780
H       0.490275   -0.401437   -0.888500
H       0.503613   -0.409989    0.884041
H       0.400050   -2.600266   -0.010936
H      -0.786194   -5.018451   -0.011574
H      -3.470021   -4.555978    0.011226
H      -3.757181   -1.846091    0.024533
