16

C      -0.351312    1.569913   -0.000710
C       0.080901    0.108591   -0.011230
C       0.902657   -0.369439   -1.211471
O       0.744625   -0.062966   -2.363509
C       1.897592   -1.370613   -0.675178
C       3.004453   -0.845304    0.176465
N       1.796566   -1.410230    0.797795
C       0.889968   -0.360530    1.197777
O       0.824642    0.061268    2.316788
H       0.516444    2.234558    0.034716
H      -0.919115    1.798405   -0.905460
H      -0.968796    1.775800    0.876025
H      -0.810229   -0.541852   -0.032097
H       2.021064   -2.311127   -1.201383
H       3.903680   -1.441667    0.291500
H       3.157388    0.229538    0.237688
