18

N       0.710416   -0.309562    0.447649
C      -0.147005    0.576572   -0.130906
O       0.182960    1.627290   -0.643112
C      -1.597839    0.152344   -0.092661
O      -1.913796   -1.117527    0.488514
C      -2.386430    0.066922    1.153116
C      -1.859686    0.366118    2.533189
C      -2.467295   -0.562841    3.592833
O      -2.065788   -0.220957    4.907469
H       1.699565   -0.148614    0.350551
H       0.372132   -1.224994    0.695524
H      -2.125002    0.393662   -1.014153
H      -3.462793    0.210068    1.037264
H      -0.768280    0.278751    2.544880
H      -2.108434    1.402884    2.789285
H      -3.559574   -0.476502    3.584825
H      -2.223887   -1.608693    3.351275
H      -1.115474   -0.358917    4.972907
