17

N      -0.034324    1.491368    0.022506
C       1.282213    0.810294   -0.004427
C       0.031575    0.010432    0.003980
C       0.032564   -0.667602   -1.405127
N       1.481360   -0.896157   -1.658537
C       1.883858    0.516426   -1.417573
C       0.983465    1.230621   -2.436650
O       0.612277    0.442622   -3.568998
C      -0.247904    0.443075   -2.428374
H      -0.225814    1.800791    0.974633
H       1.937852    0.888675    0.856316
H      -0.306314   -0.546612    0.871398
H      -0.564985   -1.576071   -1.477612
H       1.854599   -1.471826   -0.905851
H       2.958434    0.677395   -1.501287
H       1.012156    2.305995   -2.563301
H      -1.237340    0.867285   -2.548185
