8

N      -0.041339    1.336478    0.008779
C       0.065684   -0.022497    0.001142
O       1.124203   -0.617777   -0.011613
C      -1.222828   -0.708749    0.009719
C      -2.263186   -1.310956    0.016438
H       0.804149    1.883101    0.003742
H      -0.934172    1.797183    0.019499
H      -3.175032   -1.856969    0.022326
