13

O       0.071141    1.329259    0.356695
C       0.039328   -0.046361    0.119058
C      -0.393492   -0.860226    1.299769
O      -0.666978   -0.196743    2.476847
C      -1.334560   -0.730398    0.081711
C      -2.482088    0.116459    0.134581
C      -3.402699    0.893201    0.161596
H      -0.721061    1.724063   -0.034078
H       0.811061   -0.401447   -0.559078
H       0.038719   -1.843637    1.456633
H      -0.490915    0.739845    2.298737
H      -1.413049   -1.607487   -0.553773
H      -4.246337    1.536474    0.208856
