14

C       0.001905    1.435944   -0.021133
O       0.011057    0.002149   -0.017758
C       0.588452   -0.647548   -1.029259
C       0.628491   -1.993398   -1.081436
C       1.268357   -2.628657   -2.203697
N       1.367479   -3.881730   -2.361524
O       1.799276   -1.747072   -3.154295
N       1.715800   -0.341639   -3.026063
N       1.153095    0.143206   -2.038162
H       1.017926    1.838305   -0.013244
H      -0.532275    1.826369   -0.890880
H      -0.518894    1.714261    0.895012
H       0.196987   -2.615913   -0.310123
H       1.858785   -4.106362   -3.226814
