17

C      -0.016556    1.503392    0.005277
C      -0.048550   -0.019944    0.041310
O      -0.059484   -0.618108    1.119612
C      -0.054296   -0.730163   -1.205381
C      -0.041067   -2.123415   -1.392713
N      -0.135728   -3.041686   -0.377550
C       0.024279   -2.365707   -2.789303
C       0.039843   -1.133824   -3.415743
N      -0.009832   -0.157029   -2.478285
H       0.878109    1.867925   -0.513279
H      -0.892477    1.904495   -0.518451
H      -0.012114    1.879686    1.028700
H       0.016581   -2.640539    0.540363
H       0.277134   -3.945887   -0.540892
H       0.046433   -3.327154   -3.278657
H       0.077297   -0.894739   -4.467352
H      -0.018281    0.828980   -2.666015
