21

O      -0.054225    1.441206   -0.015576
C       0.021910    0.022747   -0.002873
C       0.771907   -0.502989    1.226233
C       0.750358   -2.036867    1.292453
C      -0.693632   -2.582792    1.263429
C      -1.453138   -2.036259    0.034935
C      -1.411369   -0.503445   -0.024073
C      -0.671086   -4.094734    1.225920
O      -1.143238   -4.822431    2.060443
H       0.842713    1.789151    0.018375
H       0.539748   -0.337228   -0.910216
H       1.809983   -0.145875    1.213298
H       0.299948   -0.079717    2.121901
H       1.307217   -2.449446    0.439063
H       1.263509   -2.383066    2.195917
H      -1.216450   -2.289012    2.180802
H      -1.003729   -2.452257   -0.878069
H      -2.492012   -2.382064    0.055475
H      -1.943858   -0.078279    0.835956
H      -1.919197   -0.140395   -0.923250
H      -0.160210   -4.514391    0.324461
