17

C       0.104938    1.476396   -0.366280
C       0.142356   -0.007972   -0.124652
O       1.426430   -0.624575   -0.008852
C       0.616209   -0.581794    1.151884
C       0.963283    0.090825    2.493334
C       0.342557   -1.114274    3.257172
O      -0.812799   -0.761452    3.984567
C       0.058879   -1.792542    1.882966
O      -0.452155   -2.825264    1.558861
H       0.846268    1.992951    0.248052
H       0.316512    1.695297   -1.418013
H      -0.888016    1.874923   -0.133041
H      -0.576190   -0.606754   -0.686452
H       2.034342    0.218439    2.658918
H       0.443385    1.030550    2.688376
H       1.066049   -1.674217    3.867666
H      -1.298771   -1.572661    4.172510
