14

N      -0.001892    1.401713    0.096652
C      -0.009708    0.004850    0.027374
N      -1.155256   -0.647680    0.087033
C      -1.118743   -1.990004    0.054493
C       0.093969   -2.640503   -0.061318
F       0.133807   -3.969752   -0.122967
N       1.259428   -2.017384   -0.101617
C       1.226869   -0.693377   -0.045162
N       2.414333    0.015381   -0.106977
H       0.600856    1.832610   -0.595445
H      -0.942690    1.772085    0.039183
H      -2.054674   -2.533609    0.109316
H       3.229040   -0.568829    0.025062
H       2.427923    0.851653    0.462659
