16

C      -0.030150    1.540363   -0.041670
C       0.021789    0.011735    0.068586
C       0.851834   -0.431596    1.281306
C      -1.402641   -0.581904    0.119399
C      -1.409051   -2.086238   -0.020084
O      -1.929419   -2.857136    0.744537
H       0.978162    1.963200   -0.097289
H      -0.579499    1.859479   -0.933468
H      -0.526639    1.979262    0.831508
H       0.508715   -0.375448   -0.838487
H       0.409803   -0.057821    2.212212
H       0.908928   -1.522102    1.359624
H       1.874130   -0.045573    1.218357
H      -1.916700   -0.310703    1.047465
H      -1.986389   -0.180190   -0.722017
H      -0.872615   -2.457843   -0.926869
