16

O       0.030982    0.002131    0.020073
C      -0.010104    1.192738   -0.026737
C      -1.089914    2.288483    0.051561
C      -0.046011    3.004091    0.973822
C       1.018420    2.347593    0.035240
C       0.719209    3.041225   -1.324481
C      -0.865552    3.008708   -1.295085
C       1.267861    4.389667   -1.412606
N       1.695593    5.462226   -1.472690
H      -2.113269    2.084051    0.356676
H      -0.072432    4.095776    0.985752
H      -0.019386    2.604553    1.988168
H       2.059714    2.204812    0.311686
H       1.115838    2.457529   -2.159982
H      -1.271418    2.460678   -2.147708
H      -1.288295    4.015004   -1.295796
