18

C      -0.010251    1.534904   -0.103537
O       1.287219    2.126255    0.049035
C       2.216321    1.397657    0.802248
C       1.857782    1.220803    2.285353
N       0.604403    0.474446    2.438047
C       0.354214   -0.517125    1.413247
C      -0.024197    0.022898    0.037551
C       1.304658   -0.664038    0.253111
O       2.463872    0.124814    0.228611
H      -0.696149    1.981001    0.629862
H      -0.344159    1.820642   -1.105516
H       3.154966    1.950076    0.718259
H       2.723200    0.717882    2.744968
H       1.752486    2.206455    2.752819
H       0.551672    0.055329    3.355811
H      -0.160586   -1.401597    1.772145
H      -0.791858   -0.489997   -0.532753
H       1.497291   -1.635683   -0.188086
