20

O      -0.001973   -0.062038   -0.089023
C      -0.032923    1.141273    0.035894
C      -1.345994    1.908663    0.142665
C      -1.917163    2.296589   -1.243631
C      -0.883941    2.765361   -2.289287
C       0.289958    3.615763   -1.762407
C       1.472035    2.781162   -1.237857
C       1.233637    1.989544    0.067824
H      -2.069445    1.279917    0.668710
H      -1.187508    2.813393    0.738144
H      -2.456450    1.436798   -1.653673
H      -2.663407    3.083194   -1.085312
H      -0.463477    1.887762   -2.797199
H      -1.420487    3.325355   -3.062997
H       0.666647    4.234731   -2.584520
H      -0.056308    4.319347   -0.993163
H       1.767310    2.074240   -2.023364
H       2.334517    3.437193   -1.075007
H       1.157488    2.694887    0.905052
H       2.081977    1.325781    0.254027
