21

C       0.522363   -1.521782    0.950455
C      -0.236138   -0.925129   -0.249001
C       0.751173   -0.416556   -1.320776
C       0.094054    0.142370   -2.572399
C      -0.877283    1.289900   -2.399314
C       0.774240   -0.051954   -3.862000
O      -0.341615   -0.869718   -3.499514
C      -1.163180   -1.985288   -0.819699
O      -2.365122   -1.920234   -0.808735
H       1.104164   -2.401390    0.651970
H       1.219156   -0.787680    1.366811
H      -0.166778   -1.825271    1.743724
H      -0.871936   -0.104787    0.098601
H       1.387627    0.353809   -0.866748
H       1.412855   -1.238423   -1.618993
H      -0.403538    2.128863   -1.877953
H      -1.232159    1.639838   -3.371458
H      -1.748546    0.973266   -1.818127
H       0.592896    0.647168   -4.677454
H       1.736880   -0.561443   -3.898509
H      -0.636623   -2.873196   -1.240499
