19

C       0.008907    1.656581    0.023730
C       0.005871    0.146378   -0.004991
C       0.581294   -0.679866   -1.147038
C       1.560100   -0.038677   -2.133038
C       2.921480   -0.078025   -1.382684
N       2.526325    0.026550    0.029820
C       1.260659   -0.676484    0.198191
C       3.664353   -1.323351   -1.676544
N       4.254175   -2.300965   -1.861533
H       0.999983    2.056793   -0.201182
H      -0.708895    2.073480   -0.691282
H      -0.267879    2.017026    1.020085
H      -0.885686   -0.303803    0.426222
H       0.022695   -1.544541   -1.483693
H       1.607227   -0.586931   -3.075097
H       1.306244    0.999785   -2.363499
H       3.564386    0.763504   -1.662546
H       3.242340   -0.295977    0.666974
H       1.252898   -1.542318    0.852547
