19

C      -0.079910    1.464393    0.059511
C       1.449305    1.558829   -0.026718
C       1.598255    0.260857    0.812280
C       0.170718   -0.067674    0.053525
C       0.677450   -0.309665   -1.421607
C       1.392922   -1.669429   -1.744358
C       2.417687   -1.671427   -0.608322
C       2.520014   -0.392222   -0.204309
C       1.895225    0.617035   -1.207095
H      -0.456372    1.819592    1.023516
H      -0.689152    1.882867   -0.748414
H       2.020364    2.467910    0.156239
H       1.609987    0.201596    1.899825
H      -0.547805   -0.769547    0.479475
H      -0.082063   -0.018652   -2.156915
H       0.750911   -2.554162   -1.663386
H       1.779421   -1.651563   -2.773540
H       2.524050   -2.528290    0.050415
H       2.445632    0.987929   -2.071116
