21

C      -0.114408    1.289677    0.349506
C       0.088709   -0.195324    0.039214
C       0.729441   -0.500041   -1.325190
C       0.919297   -2.032027   -1.448385
C       1.768874   -2.448356   -2.561529
N       2.457896   -2.777184   -3.429449
N      -0.133227   -0.045813   -2.411406
C       0.049544    1.320969   -2.896622
C       0.483171    0.167000   -3.723766
H       0.827208    1.845953    0.281954
H      -0.831215    1.751247   -0.333607
H      -0.498178    1.414632    1.366585
H       0.725402   -0.638604    0.815067
H      -0.875792   -0.715692    0.086597
H       1.725884   -0.022267   -1.369064
H       1.362169   -2.422035   -0.525797
H      -0.065983   -2.496972   -1.561923
H      -0.862769    1.862333   -3.129601
H       0.833679    1.925175   -2.444494
H       1.552161   -0.001628   -3.823247
H      -0.107761   -0.160449   -4.573463
