19

C      -0.345640    1.525518   -0.000546
C      -0.050879    0.043961    0.032794
C       1.303213   -0.496969   -0.258290
C       0.769924   -0.613855    1.163795
C       1.383809    0.215335    2.216836
O       1.985965    1.256412    2.031984
C       1.233999   -0.310324    3.669620
C       1.832852    0.562042    4.745070
O       0.670940   -1.358371    3.885876
H       0.500696    2.109039    0.366163
H      -0.558917    1.838838   -1.028431
H      -1.221794    1.769090    0.609819
H      -0.882584   -0.584543   -0.275263
H       1.405626   -1.417875   -0.821203
H       2.106789    0.221224   -0.386946
H       0.416965   -1.577163    1.506130
H       1.374182    1.555654    4.719239
H       1.683324    0.098347    5.720170
H       2.898704    0.716978    4.551562
