25

C       0.147902    1.632522    0.037330
C      -0.005198    0.105407   -0.014662
C       0.553068   -0.449210   -1.337829
C       0.130372   -1.885161   -1.701154
C       0.355414   -2.961654   -0.628974
C      -0.502098   -2.788027    0.659362
C       0.701091   -2.053012    1.319035
C       1.614217   -2.734520    0.256934
C       0.640827   -0.520201    1.240583
H       1.202763    1.923381   -0.038066
H      -0.388919    2.114526   -0.786475
H      -0.240570    2.041413    0.976278
H      -1.081925   -0.113636    0.010560
H       0.233310    0.207563   -2.156677
H       1.648858   -0.376221   -1.316649
H      -0.934423   -1.887961   -1.973280
H       0.673749   -2.174515   -2.609950
H       0.280045   -3.946685   -1.099683
H      -1.451731   -2.252004    0.573308
H      -0.694460   -3.751127    1.140821
H       0.915331   -2.337886    2.353660
H       2.017324   -3.680474    0.629691
H       2.440300   -2.150262   -0.159116
H       1.664706   -0.130022    1.339716
H       0.093195   -0.147721    2.116457
