9

O      -0.107246   -0.105086    0.001509
C      -0.040822    1.091420    0.005921
C       1.252348    1.905180   -0.000783
C       2.450281    1.076050   -0.014707
N       3.412043    0.438723   -0.025773
C      -1.253715    1.931172    0.019209
N      -2.192593    2.605648    0.029416
H       1.238423    2.571600   -0.872991
H       1.252781    2.562821    0.878197
