19

O       0.041615    1.435125    0.187379
C       0.010027    0.032714   -0.003247
C      -1.403209   -0.450410   -0.024794
C      -2.505161    0.297037    0.079427
C      -3.764944   -0.515831   -0.012701
C      -4.385324   -0.629607   -1.427267
O      -3.695181   -1.874150   -1.667579
C      -3.244858   -1.951128   -0.294734
C      -1.716074   -1.927547   -0.164623
H       0.959844    1.718529    0.170635
H       0.501470   -0.256826   -0.949460
H       0.559009   -0.495584    0.797645
H      -2.498492    1.373769    0.193024
H      -4.470139   -0.353269    0.806157
H      -5.475804   -0.762539   -1.436727
H      -4.107391    0.144450   -2.151745
H      -3.720990   -2.786303    0.230753
H      -1.260319   -2.380280   -1.054284
H      -1.362450   -2.501698    0.703282
