23

C      -0.123666    1.557263   -0.049605
C       0.002998    0.033279   -0.018226
O       0.524425   -0.408048   -1.291946
C       0.791426   -0.510832    1.188599
C       0.614728    0.288049    2.472073
C       0.899310   -2.029028    1.389756
C       0.295682   -3.038983    0.435251
C       2.127461   -1.226330    1.028536
O       2.798636   -1.391756   -0.182454
H       0.864482    2.034278   -0.055953
H      -0.659839    1.854120   -0.955799
H      -0.674347    1.941702    0.811286
H      -1.008457   -0.392471    0.017067
H       1.145231    0.266192   -1.590907
H      -0.441933    0.360415    2.760511
H       1.139649   -0.200921    3.298007
H       1.012063    1.304918    2.390427
H       0.839589   -2.343077    2.430319
H       0.346842   -2.721975   -0.607821
H       0.815996   -3.999346    0.518426
H      -0.760021   -3.215369    0.670359
H       2.855810   -1.050020    1.815944
H       2.120666   -1.408058   -0.870872
