15

N      -0.030728    1.284383   -0.115092
C      -0.020560   -0.075781   -0.041863
N      -1.106068   -0.795565   -0.030174
C      -0.614771   -2.094160   -0.029865
C       0.734880   -2.265592   -0.034359
C       1.301840   -0.875609   -0.045822
C       0.944457   -3.676834   -0.010446
C      -0.306858   -4.228128    0.002449
O      -1.287289   -3.253466   -0.008501
H       0.781290    1.786259    0.203607
H      -0.918229    1.730437    0.061397
H       1.892987   -0.626107   -0.934649
H       1.912500   -0.623195    0.830092
H       1.870451   -4.231314   -0.006168
H      -0.669349   -5.241384    0.015185
