21

O       0.112382    1.414630    0.123458
C       0.071386   -0.002736    0.051326
C      -1.359960   -0.546455    0.035036
C      -1.421927   -2.067962    0.010513
C      -2.850795   -2.608013    0.094097
O      -2.872038   -4.021623   -0.018659
C      -2.265786   -4.446818   -1.228671
C      -0.836359   -3.925376   -1.318029
O      -0.816574   -2.510969   -1.204675
H      -0.234798    1.759953   -0.704993
H       0.621647   -0.382338   -0.819689
H       0.592979   -0.358932    0.946955
H      -1.890362   -0.175022    0.919620
H      -1.887849   -0.160268   -0.847302
H      -0.853178   -2.482164    0.862360
H      -3.302573   -2.364252    1.060299
H      -3.457744   -2.150711   -0.705784
H      -2.286599   -5.540894   -1.227601
H      -2.844317   -4.083072   -2.094078
H      -0.228767   -4.380234   -0.518827
H      -0.386147   -4.172714   -2.284504
