21

C      -0.212465    1.559733    0.037956
C       0.005178    0.049816    0.019312
O       0.593051   -0.347375   -1.222049
C       1.676743   -1.271034   -1.026842
C       2.988871   -0.520339   -1.291540
C       3.167797    0.352855   -0.022847
C       2.410858   -0.406325    1.074794
C       0.892743   -0.534061    1.102156
C       1.721307   -1.611209    0.470826
H       0.733638    2.104785    0.004244
H      -0.816659    1.863328   -0.821775
H      -0.745971    1.850960    0.948968
H      -0.981737   -0.436189    0.108573
H       1.522381   -2.137376   -1.677465
H       3.811559   -1.240967   -1.369859
H       2.947502    0.053694   -2.220797
H       4.222344    0.453583    0.249921
H       2.786442    1.365703   -0.176366
H       2.886087   -0.494465    2.046099
H       0.440584   -0.691708    2.076116
H       1.800928   -2.629354    0.829567
