16

C      -0.034743    1.558499   -0.025469
C       0.009407    0.018681    0.018141
C       0.707333   -0.498678    1.185782
C       1.290564   -0.914653    2.162185
C       1.945148   -1.383202    3.257923
C       2.526848   -1.803936    4.232058
C       3.232222   -2.270459    5.415680
O       3.272605   -3.692197    5.423838
H       0.975424    1.975468   -0.047850
H      -0.568393    1.894895   -0.919023
H      -0.546456    1.957330    0.854231
H      -1.013904   -0.378886    0.002991
H       0.494517   -0.360976   -0.890684
H       4.248260   -1.841543    5.417392
H       2.721913   -1.879771    6.311948
H       3.746948   -3.959926    6.217798
