17

C       0.185520    1.412358   -0.294179
C      -0.055011   -0.052740    0.011624
C      -1.518776   -0.451427   -0.019720
O       0.718301   -0.898976   -0.935372
C       1.514834   -1.403270    0.045388
O       2.425726   -2.157032   -0.057093
C       0.779286   -0.664084    1.188782
C       1.554263    0.190794    2.055912
C       2.201366    0.905364    2.773355
H       1.251950    1.646680   -0.281745
H      -0.217483    1.658216   -1.280800
H      -0.311022    2.040892    0.450911
H      -1.956552   -0.217402   -0.994529
H      -1.637731   -1.523368    0.161078
H      -2.076349    0.095998    0.746775
H       0.188941   -1.377629    1.774151
H       2.779643    1.531137    3.407315
