21

C       0.238840    1.733312    0.356390
O       0.609187    0.410976    0.023689
C       0.740157   -0.480407    1.142666
C      -0.625962   -0.867267    1.715832
C       1.534970   -1.713942    0.732340
C       1.070146   -2.712815   -0.318560
O      -0.033484   -2.409334   -1.111863
C       2.306949   -1.880125   -0.565344
O       2.201154   -0.948000   -1.603105
H       0.920718    2.164105    1.104712
H       0.298982    2.323815   -0.560715
H      -0.786681    1.789740    0.741970
H       1.322768    0.050321    1.913778
H      -1.218440   -1.355272    0.939258
H      -0.491834   -1.566004    2.547546
H      -1.169310    0.001128    2.099592
H       2.024087   -2.168477    1.590899
H       1.158158   -3.773493   -0.098001
H       0.305770   -1.821293   -1.805814
H       3.289839   -2.341679   -0.520636
H       1.779336   -0.161041   -1.221425
