18

C       0.044464    1.534738    0.003466
C      -0.017821    0.006586    0.027848
C      -1.450452   -0.538979    0.002187
C      -1.533077   -2.090113   -0.006631
O      -2.385600   -2.413509    1.114264
C      -2.655897   -1.221750    1.718350
N      -2.204564   -0.146919    1.206503
C      -3.447892   -1.304285    2.899969
C      -4.116845   -1.383590    3.894445
H       1.079605    1.886534    0.044753
H      -0.407315    1.932910   -0.912009
H      -0.498617    1.954716    0.853614
H       0.521890   -0.407582   -0.834092
H       0.482234   -0.378082    0.925791
H      -1.967468   -0.115145   -0.869195
H      -1.986602   -2.504512   -0.910107
H      -0.560356   -2.567248    0.156175
H      -4.707877   -1.444837    4.775189
