23

C      -0.127322    1.525101   -0.030101
C      -0.000604    0.016560    0.022551
C       1.311462   -0.734517   -0.272439
C       2.588318   -0.000301   -0.412050
C       3.105370    0.768744    0.550227
C       2.434608    0.970459    1.882395
C       1.461172   -0.168423    2.251824
C       0.674270   -0.793862    1.103781
C      -0.011416   -2.088894    1.502749
H       0.843691    2.023463   -0.047539
H      -0.658910    1.823594   -0.939873
H      -0.697312    1.912230    0.822666
H      -0.873801   -0.487162   -0.386916
H       1.213131   -1.612450   -0.905130
H       3.110920   -0.100562   -1.360215
H       4.040271    1.295404    0.377531
H       3.191010    1.061272    2.671549
H       1.905184    1.932634    1.884581
H       2.045800   -0.979822    2.704882
H       0.771999    0.175964    3.033087
H      -0.748573   -1.918499    2.297327
H      -0.536397   -2.541419    0.655745
H       0.713258   -2.822032    1.876805
