16

C      -0.036729    1.525312    0.047301
C       0.096966    0.036948    0.014032
N      -0.851837   -0.874163    0.705642
C       0.610007   -0.939814    0.994308
C       1.307622   -1.756924   -0.130886
C       0.344013   -2.206951   -1.196585
C       0.769623   -0.763276   -1.151682
H       0.899080    2.009732   -0.253318
H      -0.822942    1.870037   -0.635546
H      -0.287063    1.875966    1.054708
H      -1.275348   -0.338457    1.463548
H       0.985059   -0.796692    2.000110
H       2.312874   -2.146795   -0.040252
H       0.799970   -2.781903   -1.997102
H      -0.668336   -2.490333   -0.939908
H       1.301651   -0.277976   -1.960256
