17

O       0.054261    1.404405    0.097581
C       0.039865    0.014751    0.074378
C      -0.350556   -0.838590    1.273909
C      -1.504880   -0.148681    1.983028
O      -2.238755    0.005836    0.728378
C      -1.235837   -0.760604    0.029273
C      -1.715620   -1.742121   -0.999619
C      -2.369899   -1.054779   -2.188470
O      -2.132420   -1.322524   -3.337029
H      -0.870022    1.683477    0.150461
H       0.860739   -0.394330   -0.508127
H       0.258117   -1.642366    1.666659
H      -2.064442   -0.793697    2.666912
H      -1.295789    0.815241    2.458959
H      -0.890664   -2.360036   -1.364005
H      -2.466952   -2.401518   -0.541463
H      -3.111831   -0.272213   -1.917290
