19

C      -0.055509    1.381751    0.024949
O      -0.003191   -0.032509    0.068646
C       0.667034   -0.540986    1.150799
C       0.368528   -0.330199    2.660461
C       1.538537   -1.335265    2.598321
C       0.871482   -2.077709    1.379806
C       1.999648   -2.525933    0.469028
C       2.877243   -1.519780    0.519314
C       2.235578   -0.514968    1.453868
H       0.949758    1.820592   -0.042572
H      -0.621593    1.652348   -0.868633
H      -0.560653    1.795538    0.908530
H       0.592919    0.652629    3.084054
H      -0.588860   -0.711520    3.026525
H       2.048733   -1.814531    3.433430
H      -0.000109   -2.711549    1.546788
H       2.042863   -3.452072   -0.086148
H       3.823582   -1.406466    0.009462
H       2.733965    0.424216    1.696988
