14

N      -0.021427    1.353127    0.128773
C       0.005758   -0.006660    0.046606
N      -1.165044   -0.651086    0.034064
C      -1.117756   -1.982376    0.001987
C       0.080609   -2.688131   -0.024764
N       1.256434   -2.058282   -0.027425
C       1.238715   -0.725436    0.007122
C       2.470426   -0.007781   -0.002177
C       3.471968    0.662782   -0.014598
H       0.816361    1.863695   -0.096016
H      -0.907283    1.795346   -0.054538
H      -2.072240   -2.502942   -0.006664
H       0.097975   -3.773036   -0.050988
H       4.375407    1.221385   -0.018694
