19

C       0.009931    1.645117   -0.095345
C      -0.039562    0.114771    0.065116
C      -1.454584   -0.409773    0.047746
N      -2.115245   -0.671810   -1.025270
O      -1.371603   -0.418594   -2.178039
C      -2.189152   -0.628411    1.309583
C      -3.603959   -1.138973    1.315471
N      -1.536535   -0.342552    2.381278
O      -2.302764   -0.566119    3.524310
H       1.046641    1.994875   -0.085672
H      -0.445462    1.952071   -1.040401
H      -0.521953    2.138708    0.723109
H       0.509337   -0.355697   -0.754506
H       0.428844   -0.171212    1.007448
H      -1.981910   -0.680474   -2.875751
H      -3.959188   -1.309346    0.301932
H      -3.659931   -2.069002    1.889725
H      -4.256538   -0.420881    1.821748
H      -1.696129   -0.316964    4.230005
