16

C       0.023735    1.575829    0.120837
C      -0.022059    0.055349   -0.046627
N      -1.370965   -0.484584   -0.002337
C      -2.141031   -0.760990    1.123423
N      -3.313996   -1.223382    0.918374
C      -3.448793   -1.303109   -0.539317
C      -2.127951   -0.800869   -1.130459
O      -1.768381   -0.687294   -2.278183
H       1.058336    1.928518    0.071456
H      -0.544707    2.066977   -0.673591
H      -0.394171    1.884388    1.084354
H       0.384210   -0.231529   -1.020473
H       0.577612   -0.438444    0.725868
H      -1.720459   -0.583061    2.108812
H      -3.648909   -2.331529   -0.858913
H      -4.286744   -0.690970   -0.890246
