20

C       0.275916    0.912229   -0.538529
O      -0.268409    0.281108    0.620689
C      -1.337736   -0.522978    0.381241
C      -1.404911   -1.867229    0.097799
C      -0.241236   -2.796340   -0.059926
C      -2.800865   -2.192179    0.000232
C      -3.372696   -3.545095   -0.295302
C      -3.511026   -1.037682    0.229019
N      -2.614001   -0.016394    0.449829
H       1.126074    1.509031   -0.200678
H       0.616289    0.169754   -1.269881
H      -0.461005    1.569157   -1.018423
H      -0.329639   -3.670652    0.596263
H      -0.147434   -3.178646   -1.084466
H       0.693259   -2.287720    0.193923
H      -3.048736   -4.294386    0.437752
H      -4.466501   -3.521600   -0.280064
H      -3.065022   -3.916004   -1.281141
H      -4.574685   -0.861762    0.254839
H      -2.834876    0.923342    0.728177
