21

C       0.063248    1.579508    0.086449
C       0.127904    0.067383    0.057243
O      -0.851131   -0.579890    0.895564
C       0.535006   -0.698674    1.250530
C       1.138767   -2.084025    1.118140
C       2.550051   -2.098661    0.498713
C       2.712664   -1.150172   -0.719040
C       1.510876   -1.098874   -1.639418
C       0.346651   -0.551900   -1.287458
H       0.999407    2.017966   -0.275361
H      -0.744735    1.939593   -0.560066
H      -0.127755    1.935847    1.102324
H       0.810961   -0.129413    2.140471
H       1.159324   -2.577916    2.096215
H       0.459293   -2.662735    0.488008
H       3.301526   -1.821633    1.247295
H       2.780425   -3.128602    0.203840
H       2.912211   -0.139524   -0.344433
H       3.604737   -1.442145   -1.281346
H       1.614501   -1.535198   -2.630166
H      -0.489914   -0.520099   -1.982333
