21

C       0.184092    1.543269   -0.169847
C      -0.069077    0.049432   -0.006168
C      -1.425727   -0.356471    0.657275
C      -0.662484   -1.222317    1.702019
C       0.689388   -0.690000    1.148414
O       1.596612   -1.633664    0.595115
C       1.416858   -1.705597   -0.796017
C       0.110392   -2.228392   -1.327219
C       0.362043   -0.730609   -1.245744
H       1.217634    1.737047   -0.478302
H      -0.479130    1.975777   -0.927937
H       0.007512    2.079033    0.768726
H      -1.948648    0.494759    1.101151
H      -2.126496   -0.886466    0.008600
H      -0.859846   -0.981102    2.749264
H      -0.770349   -2.301326    1.573799
H       1.243754   -0.060894    1.852732
H       2.346819   -1.883624   -1.324669
H       0.113933   -2.667628   -2.319768
H      -0.583590   -2.695829   -0.638167
H       0.463770   -0.180216   -2.174567
