19

C      -0.070256    1.543081    0.483429
C      -0.059534    0.088532   -0.036028
C       0.860080   -0.719140    0.865025
O       1.900720   -1.211706    0.513612
C      -1.468394   -0.501984   -0.092480
C      -2.380975    0.054313   -1.184645
O      -3.708188   -0.394272   -1.038476
C      -1.779815   -1.834692    0.442029
O      -2.136147   -0.644716    1.173720
H       0.947886    1.939107    0.533986
H      -0.649626    2.197637   -0.171817
H      -0.510797    1.587017    1.483823
H       0.372935    0.052107   -1.042364
H       0.509932   -0.796177    1.918811
H      -2.329104    1.153996   -1.181035
H      -2.025406   -0.286632   -2.163445
H      -3.925975   -0.271855   -0.104680
H      -2.622237   -2.381355    0.027272
H      -1.001029   -2.441046    0.899858
