16

O      -0.229176    1.436842    0.012668
C      -0.036553    0.034088    0.002580
C      -1.419319   -0.609621    0.012249
C      -1.337107   -2.124605    0.002375
O      -2.696608   -2.630902    0.012756
C      -2.815774   -3.955447    0.007234
O      -1.927109   -4.762666   -0.005282
C      -4.236310   -4.331940    0.018964
N      -5.335243   -4.686307    0.027244
H       0.633535    1.861592    0.007244
H       0.521172   -0.289291   -0.891807
H       0.538411   -0.299698    0.882098
H      -1.963161   -0.273699    0.900968
H      -1.980392   -0.263122   -0.861572
H      -0.832519   -2.510776   -0.889024
H      -0.814991   -2.521387    0.878881
