16

C      -1.293853    1.330131    0.300751
C      -0.185466    0.292938    0.065706
O       0.704822    0.289201    1.150512
C      -0.696678   -1.131706   -0.160967
O      -0.340961   -2.024293    0.582060
C      -1.561181   -1.469549   -1.341689
C      -2.939416   -0.960946   -1.493143
O      -1.876058   -0.447857   -2.286228
H      -0.818113    2.275139    0.573546
H      -1.888305    1.487693   -0.601051
H      -1.942045    1.029946    1.129923
H       0.345497    0.568878   -0.862039
H       0.734223   -0.629321    1.462321
H      -1.336827   -2.449013   -1.762154
H      -3.662593   -1.581341   -2.018910
H      -3.351396   -0.278362   -0.754253
