15

O       0.385704    1.289778   -0.140069
C       0.119627   -0.026458   -0.083844
C      -0.306546   -0.842958   -1.078540
O      -0.434196   -2.103530   -0.524198
C      -0.076261   -1.956802    0.768551
N       0.267365   -0.742757    1.086972
C      -0.103319   -3.137571    1.639269
C      -1.167137   -4.170966    1.464735
N       0.216206   -4.471182    1.090494
H       0.671684    1.552541    0.743204
H      -0.540953   -0.733655   -2.120386
H       0.295206   -2.940064    2.628193
H      -1.534687   -4.699841    2.339321
H      -1.898817   -4.004492    0.679758
H       0.319947   -4.395756    0.080680
