20

C      -0.339120    0.979689   -0.441918
C      -0.732123   -0.487682   -0.357113
O      -0.012816   -1.292323   -1.315040
C       1.219909   -1.700569   -0.973867
N       1.787283   -1.416028    0.122375
C       1.866860   -2.564702   -2.061615
O       2.975676   -3.003095   -1.858369
C       1.086205   -2.823828   -3.330468
C       1.837930   -3.692088   -4.335399
H       0.704872    1.116273   -0.153215
H      -0.483816    1.362628   -1.456438
H      -0.965013    1.566207    0.238333
H      -0.547328   -0.887080    0.643281
H      -1.783207   -0.632459   -0.619047
H       2.704721   -1.866682    0.126221
H       0.125374   -3.269284   -3.041452
H       0.812138   -1.849075   -3.754761
H       2.781144   -3.224203   -4.629150
H       2.079753   -4.668007   -3.906551
H       1.234619   -3.848581   -5.233566
