17

N       0.133921    0.706542    0.995357
C      -0.049938    0.061101   -0.195515
O       0.708806    0.133828   -1.142946
C      -1.273551   -0.796549   -0.226721
C      -2.242108   -0.973657   -1.379362
C      -3.212716   -1.446202   -0.278009
C      -2.639401   -2.776864    0.249941
C      -1.516900   -1.899320    0.770219
N      -2.373920   -0.671482    0.799725
H       0.877736    1.384834    1.041527
H      -0.662115    0.822113    1.604404
H      -2.531667   -0.005297   -1.793539
H      -1.994634   -1.666859   -2.187606
H      -4.283755   -1.268676   -0.344019
H      -3.233626   -3.174148    1.076413
H      -2.418542   -3.570744   -0.470209
H      -0.803461   -2.106070    1.559769
