18

C      -0.293108    1.664024   -0.221767
C       0.097024    0.215292    0.002600
C       0.813516   -0.564916   -1.182487
C       1.985019   -0.709347   -0.220407
C       3.169880   -1.163372    0.337037
N       4.235993   -1.876044   -0.244460
C       3.102427   -0.636162    1.660863
N       1.975595    0.060103    1.916593
N       1.357167   -0.004802    0.741089
H       0.531542    2.224486   -0.671925
H      -1.161177    1.722384   -0.886358
H      -0.557394    2.142752    0.725798
H      -0.731410   -0.353669    0.438094
H       0.312807   -1.491253   -1.476680
H       0.990948    0.045327   -2.072562
H       3.919568   -2.561470   -0.919080
H       4.793662   -2.351231    0.454276
H       3.851815   -0.736066    2.434159
