16

C       0.005923    1.431256    0.028777
C       0.032886   -0.022334    0.027981
C       0.052530   -1.227528    0.030476
C       0.078904   -2.653101    0.016790
N       0.861551   -3.509775    0.981697
C       0.215619   -4.522288    0.090203
C      -1.099301   -3.698618   -0.007250
O      -1.183220   -3.764714   -1.455200
C       0.242540   -3.650088   -1.205229
H       0.787132    1.838442    0.679962
H       0.168725    1.831673   -0.977849
H      -0.957388    1.809988    0.387510
H       1.861059   -3.437424    0.774423
H       0.339637   -5.598333    0.200338
H      -2.010652   -3.731975    0.586850
H       0.931105   -3.622976   -2.051195
