21

C       0.030782    1.496707   -0.003342
C       0.000361    0.042332    0.056868
C      -0.025392   -1.160410    0.099686
C      -0.075088   -2.615526    0.160872
C      -1.476868   -3.204667   -0.123905
O      -1.968988   -2.798234   -1.392674
C      -1.472673   -4.711132    0.032425
C      -1.747934   -5.340282    1.376759
C      -2.764728   -5.444210    0.267913
H       0.969617    1.858895   -0.437348
H      -0.788477    1.885553   -0.618400
H      -0.064592    1.941730    0.993487
H       0.634378   -3.047363   -0.561441
H       0.253767   -2.966068    1.147669
H      -2.184023   -2.774014    0.594803
H      -1.370672   -3.139289   -2.066673
H      -0.735724   -5.217636   -0.589689
H      -1.189910   -6.227297    1.655088
H      -1.971423   -4.680124    2.208912
H      -3.668313   -4.849220    0.347256
H      -2.907046   -6.405529   -0.212858
