12

N      -0.001982    1.413430    0.151759
C      -0.031161    0.039159    0.052112
C      -1.150797   -0.735448    0.024011
F      -2.346367   -0.150567    0.025969
N      -1.162117   -2.088625   -0.006066
C      -0.018393   -2.664449   -0.018058
O       1.171118   -2.037923   -0.013929
C       1.250302   -0.643852    0.008702
O       2.330248   -0.114438   -0.016893
H       0.880508    1.817161   -0.129246
H      -0.818876    1.899300   -0.184612
H       0.087994   -3.742179   -0.035370
