20

C      -0.244888    1.536773    1.148306
C      -0.095938    0.086823    0.719193
C       0.935846   -0.352016   -0.386531
C       2.257288    0.090823    0.251675
C       2.130835   -0.298992    1.524788
C       0.742525   -0.947843    1.559581
C       0.830656   -1.804548    0.232178
C      -0.331918   -2.708699   -0.160125
H       0.719007    1.993995    1.384130
H      -0.717523    2.126874    0.354749
H      -0.884606    1.612420    2.035084
H      -1.087736   -0.316971    0.497039
H       0.771553   -0.156693   -1.447351
H       3.077812    0.588047   -0.245893
H       2.819719   -0.207556    2.352522
H       0.379431   -1.365228    2.500024
H       1.765090   -2.367571    0.152624
H      -1.309597   -2.223264   -0.108379
H      -0.197937   -3.072571   -1.185246
H      -0.364537   -3.587151    0.494462
