17

C      -0.045192   -1.214352   -0.014831
C      -0.043437   -0.011323    0.013437
C      -0.028064    1.421956    0.037582
C       0.505801    2.171223    1.277915
C       1.277874    2.170461    0.020945
C       2.719067    1.780894   -0.324402
C       2.448700    2.171570   -1.798988
C       1.869279    3.270184   -0.871474
O       3.110709    3.192208   -0.061288
H      -0.052319   -2.275716   -0.035719
H      -0.862290    1.900521   -0.469594
H      -0.026373    3.070220    1.570792
H       0.858583    1.561112    2.101997
H       3.345552    0.992380    0.089996
H       3.334209    2.471936   -2.359809
H       1.752059    1.556944   -2.373247
H       1.480607    4.259964   -1.111119
