15

C      -0.075329    1.552102   -0.212782
C       0.085701    0.051944    0.070910
O       0.738965   -0.157824    1.291162
C      -1.264510   -0.667530    0.090466
O      -1.624526   -1.266511    1.087712
C      -2.063069   -0.618012   -1.106366
C      -2.726366   -0.578806   -2.121725
C      -3.470876   -0.538250   -3.255357
C      -4.132578   -0.501044   -4.264923
H       0.910720    2.021975   -0.193009
H      -0.528457    1.726167   -1.192584
H      -0.695103    2.020137    0.557476
H       0.664493   -0.399061   -0.754390
H       0.140929   -0.712150    1.818248
H      -4.716824   -0.470324   -5.151936
