19

C       0.182223    1.361384   -0.147041
C       1.421092    0.530379    0.054921
C       2.016237    0.357260    1.442573
C       0.901560   -0.372269    2.180149
C      -0.134784   -0.671080    1.386835
C       0.083095   -0.160846    0.001508
C       0.107313   -0.988226   -1.271686
C       1.327800   -0.397092   -2.034191
O       2.197749    0.195247   -1.061740
H      -0.180640    1.963252    0.679255
H       0.017076    1.793978   -1.128530
H       2.933132   -0.243204    1.389878
H       2.283055    1.305598    1.923359
H       0.959028   -0.593205    3.240992
H      -1.032611   -1.190532    1.704216
H       0.279146   -2.039005   -1.016722
H      -0.800990   -0.933589   -1.879629
H       1.901866   -1.147904   -2.584495
H       0.997548    0.365052   -2.753356
