21

C       0.051623    1.490075   -0.009170
C      -0.043334   -0.000650   -0.017953
C      -0.052197   -0.808798   -1.098483
C      -0.079284   -2.197338   -0.677649
C       0.261583   -3.409241   -1.127556
C       0.228215   -4.416735    0.010011
C       0.244505   -3.514875    1.280982
C      -0.437566   -2.223064    0.798653
C      -0.058901   -0.805814    1.279525
H       0.944683    1.825821    0.534480
H       0.094479    1.901099   -1.021439
H      -0.807770    1.938524    0.506457
H       0.024052   -0.467982   -2.124931
H       0.555718   -3.665375   -2.138702
H      -0.683156   -5.034032   -0.021990
H       1.070742   -5.117113   -0.017450
H      -0.242012   -3.981185    2.142701
H       1.284226   -3.301947    1.557193
H      -1.529507   -2.330342    0.886991
H       0.941658   -0.783312    1.738732
H      -0.750016   -0.391891    2.022503
