16

N       0.082925    1.048290    0.121126
H       0.806296    0.376421    0.478742
H       0.575174    1.832150   -0.310932
H      -0.494171    0.595626   -0.589863
C      -0.692855    1.507225    1.315168
C      -1.459944    0.480670    2.072613
C      -0.157035    1.019380    2.650899
C       0.992703    0.184066    2.539320
C       1.958278   -0.495206    2.268790
C      -0.306075    2.134065    3.824230
O       0.541953    2.058011    4.703875
O      -1.275922    2.872753    3.588731
H      -1.030335    2.534493    1.264129
H      -2.359029    0.846746    2.554413
H      -1.479888   -0.539253    1.699022
H       2.836571   -1.089454    2.194884
