16

N      -0.050440   -1.156924   -0.078470
C      -0.034136   -0.001192   -0.038275
C      -0.031664    1.449223   -0.006743
C      -0.097479    2.073112    1.429579
C       1.434795    1.751397    1.534865
C       1.393444    2.101528    0.005764
C       1.039693    3.604014    0.099453
O      -0.309422    3.953991   -0.247604
C      -0.017644    3.583862    1.109199
H      -0.736333    1.845417   -0.736718
H      -0.825473    1.730920    2.162203
H       2.038092    2.395651    2.179454
H       1.647623    0.700088    1.736744
H       2.165333    1.787921   -0.693983
H       1.788432    4.377806   -0.025752
H      -0.192427    4.340053    1.865947
