15

N      -0.191034    1.375717    0.140570
C      -0.045714    0.140948   -0.081596
O       1.149104   -0.417231   -0.384586
C       1.257880   -1.790172   -0.793003
C       0.008654   -2.341510   -1.409555
C      -1.182209   -1.871161   -1.063047
C      -1.262314   -0.782037   -0.010514
C      -1.364448   -1.383090    1.329173
N      -1.437249   -1.880152    2.369961
H       0.703039    1.862779    0.053177
H       2.090626   -1.811960   -1.501860
H       1.554579   -2.390215    0.079367
H       0.121976   -3.143387   -2.131605
H      -2.108940   -2.250630   -1.476906
H      -2.135816   -0.142152   -0.154723
