19

C      -0.089938    1.509475    0.118353
N       0.438506    0.164766   -0.029808
C       0.782859   -0.531262    1.199092
C      -0.329948   -0.634918    2.271658
C       1.195068   -1.946404    0.818342
O       0.730487   -2.570386   -0.103533
O       2.107549   -2.441000    1.674176
C       2.499855   -3.799696    1.435624
H       0.644643    2.136837    0.637743
H      -0.244104    1.941524   -0.874978
H      -1.042001    1.588962    0.670011
H      -0.170866   -0.425746   -0.584902
H       1.649061   -0.035090    1.653254
H      -0.637157    0.358982    2.606090
H      -1.206806   -1.150594    1.866131
H       0.027590   -1.189353    3.144394
H       1.637176   -4.467549    1.501389
H       2.947172   -3.901188    0.443870
H       3.228639   -4.038380    2.210122
