18

C      -0.646280    1.430081   -0.426982
N      -0.428308    0.021263   -0.121065
C      -1.235525   -0.586806    0.976011
C      -0.127778   -1.648875    1.245792
N      -0.030049   -1.427481    2.718063
C      -0.333875   -0.055534    2.178630
C      -0.468409    1.108401    3.119661
C       0.588900   -0.314249    0.917539
H       0.181829    1.791669   -1.045985
H      -1.564798    1.527812   -1.015561
H      -0.731502    2.094532    0.446654
H      -2.319898   -0.718282    0.927068
H       0.010361   -2.611857    0.756479
H      -0.857949   -1.808567    3.185691
H       0.430281    1.187786    3.740220
H      -0.610693    2.054201    2.593015
H      -1.324906    0.963200    3.788642
H       1.658259   -0.129795    0.806134
