18

C      -0.143234    1.397520    0.116824
C       0.091385   -0.078678   -0.017668
N       1.251915   -0.570374   -0.153558
O      -1.105525   -0.737140    0.032094
C      -1.098370   -2.137170   -0.090219
C      -2.542113   -2.647081   -0.104631
O      -3.487568   -1.931450   -0.284096
C      -2.657091   -4.152238    0.122570
O      -3.961122   -4.569939   -0.171412
H       0.808932    1.924031    0.076090
H      -0.798881    1.748483   -0.685756
H      -0.648171    1.613834    1.063229
H       1.252148   -1.586308   -0.229877
H      -0.617775   -2.454108   -1.029797
H      -0.540465   -2.611219    0.731940
H      -1.893073   -4.657702   -0.495007
H      -2.375277   -4.337249    1.175062
H      -4.031105   -5.506132    0.036630
