19

C      -0.038746    1.541550    0.056689
C       1.521105    1.491913    0.010212
C       1.964826    1.249965    1.425637
C       1.408049    0.220481    2.071086
C       0.548508   -0.728450    1.246411
C       1.590022   -1.672373    0.634064
C       2.081012   -1.137765   -0.490684
C       1.327508    0.107905   -0.821448
C       0.001093    0.002960   -0.024377
H      -0.492879    2.024555    0.924635
H      -0.460211    1.954813   -0.864997
H       2.056575    2.301339   -0.486765
H       2.684271    1.915003    1.893119
H       1.642294   -0.030662    3.100696
H      -0.224367   -1.223917    1.839012
H       1.962769   -2.553017    1.144670
H       2.919749   -1.519983   -1.061028
H       1.223296    0.335474   -1.884516
H      -0.841304   -0.536986   -0.464863
