19

C       0.009615    1.577213   -0.025810
C       0.120050    0.048912   -0.002694
C       0.676110   -0.537705   -1.299222
C       0.638538   -2.067717   -1.333643
C      -0.677455   -2.086714   -2.013025
C      -0.340875   -0.615716   -2.478978
C       0.485998   -1.298199   -3.578928
N       0.527281   -2.553937   -2.755621
H       0.987874    2.041778   -0.191529
H      -0.657921    1.920528   -0.823200
H      -0.382934    1.958800    0.921755
H       0.768153   -0.253240    0.830634
H      -0.863081   -0.394924    0.201312
H       1.636134   -0.062336   -1.543727
H       1.055935   -2.770799   -0.623611
H      -1.580235   -2.669103   -1.886432
H      -1.033653    0.200295   -2.678262
H      -0.078827   -1.507577   -4.491023
H       1.462765   -0.869983   -3.835688
