14

C      -0.004892    1.524327   -0.083440
O       1.262839    2.084260    0.272404
C       2.219556    1.135926    0.648354
C       2.247350   -0.216466   -0.034660
O       1.079483   -0.494805   -0.778808
C       0.039456    0.006048    0.049329
O       0.397638   -0.325620    1.383507
C       1.792339   -0.103539    1.408264
H      -0.776404    1.934496    0.580487
H      -0.240710    1.801576   -1.118712
H       3.158008    1.613761    0.906902
H       3.131484   -0.715772   -0.408476
H      -0.903127   -0.479363   -0.209916
H       2.281918   -0.504891    2.285742
