20

N      -0.024074    1.531994   -0.049561
C      -0.044564    0.069559    0.004475
C      -1.449462   -0.571874    0.130764
N      -2.093194   -0.104962    1.353334
C      -3.504272   -0.487845    1.477537
C      -4.112912    0.219681    2.685912
O      -4.006696    1.622265    2.571147
C       0.641952   -0.483421   -1.170579
N       1.146827   -0.935017   -2.106171
H      -0.437845    1.845496   -0.923893
H      -0.632556    1.866362    0.693394
H       0.540966   -0.233185    0.885104
H      -2.058457   -0.254987   -0.723545
H      -1.360390   -1.669927    0.075661
H      -1.585673   -0.471444    2.155784
H      -4.021466   -0.152349    0.571389
H      -3.650443   -1.578368    1.558846
H      -5.176990   -0.025845    2.764131
H      -3.626311   -0.147541    3.607982
H      -3.116731    1.781659    2.231710
