18

C      -0.031192    1.493534   -0.036370
N       1.272358    0.798194    0.078878
C       0.068149    0.026310    0.017410
C      -0.515042   -0.975308    1.018947
N      -1.661247   -1.068632    0.028690
C      -0.546921   -0.962035   -0.994113
C       0.258350   -2.263542   -0.757403
N       1.546615   -2.067068   -0.053580
C       0.297218   -2.264960    0.724876
H      -0.320086    2.066290    0.840631
H      -0.312746    1.945557   -0.984966
H       1.784203    0.768441   -0.797995
H      -0.755062   -0.727126    2.051906
H      -2.067279   -2.007419    0.026889
H      -0.820670   -0.686944   -2.013263
H       0.090541   -3.146126   -1.364616
H       2.060683   -2.947723   -0.062829
H       0.174543   -3.154625    1.332264
