15

C      -0.025710    1.515660    0.005910
C      -0.004882    0.016611   -0.026326
C      -0.051079   -0.724411   -1.168078
N      -0.033986   -2.096643   -1.236570
C       0.032468   -2.707861   -0.097489
O       0.055703   -4.044722   -0.024167
N       0.083235   -2.087056    1.101938
C       0.069456   -0.678966    1.248797
O       0.117728   -0.182907    2.358361
H       0.869895    1.909337    0.498502
H      -0.081127    1.931053   -1.003603
H      -0.880557    1.883300    0.583716
H      -0.106922   -0.226838   -2.133006
H       0.014399   -4.362561   -0.937332
H       0.133957   -2.631566    1.953079
