14

O       0.046287    1.384607    0.197176
C       0.027080   -0.005667    0.032058
C      -1.402828   -0.558230    0.062389
N      -1.474634   -1.983142   -0.260410
C      -0.624387   -2.419993   -1.091414
N       0.390263   -1.665311   -1.697579
C       0.704664   -0.393881   -1.277044
O       1.471418    0.342883   -1.862100
H       0.721974    1.711671   -0.416239
H       0.606492   -0.509141    0.829154
H      -1.841627   -0.391895    1.049137
H      -2.018967    0.000826   -0.656658
H      -0.648499   -3.460916   -1.410452
H       0.891133   -2.030107   -2.495916
