18

C       0.022144    1.494110    0.026856
C      -0.047636    0.001823    0.085364
N       0.602984   -0.911467   -0.977613
C       0.002622   -1.928034    0.019123
C       0.149790   -3.407154   -0.141374
C       0.606474   -0.983270    1.116951
O       1.990403   -0.951616    1.244721
C      -1.219574   -0.992822    0.009778
O      -2.400295   -1.017267   -0.173881
H       1.060423    1.833956    0.091657
H      -0.413823    1.878446   -0.900618
H      -0.533278    1.927607    0.864215
H       0.077269   -0.895012   -1.855880
H       1.204447   -3.696200   -0.098133
H      -0.380867   -3.925298    0.663308
H      -0.267237   -3.749180   -1.093790
H       0.164858   -1.028966    2.113188
H       2.331965   -0.911629    0.338871
