14

O      -0.042273    1.343327    0.009845
C       1.139143    1.991664    0.001806
C       2.330763    1.341278   -0.013199
N       2.453264   -0.028347   -0.021621
C       1.328304   -0.685086   -0.014195
C       1.050476   -2.088648   -0.018786
C      -0.316379   -2.216949   -0.006262
C      -0.988881   -0.924458    0.006933
C       0.003852   -0.004301    0.002273
H       1.015417    3.065688    0.008669
H       3.248177    1.917760   -0.019058
H       1.790221   -2.873482   -0.030010
H      -0.852860   -3.157847   -0.005994
H      -2.054829   -0.759177    0.018067
