19

O      -0.020452    1.408501   -0.139685
C       0.009608   -0.004022    0.018871
C       0.609413   -0.488342    1.388277
C      -0.460300   -1.379375    1.994273
C      -1.558375   -1.387442    1.228023
C      -2.950481   -1.969390    1.214842
C      -3.621174   -1.298470   -0.033701
C      -2.514107   -0.481236   -0.676228
C      -1.392888   -0.554410    0.047822
H       0.890313    1.714793   -0.199660
H       0.573005   -0.460083   -0.809979
H       1.566381   -1.009212    1.256887
H       0.810918    0.388879    2.018462
H      -0.321505   -1.896607    2.936729
H      -2.925275   -3.059355    1.110284
H      -3.498639   -1.757652    2.137713
H      -4.034597   -2.042582   -0.726075
H      -4.465877   -0.660750    0.258385
H      -2.661501    0.091140   -1.584175
