18

C      -0.042159    1.549636    0.135272
C       0.087993    0.063007    0.020853
N      -0.768727   -0.875188    0.757578
C       0.729272   -0.924313    0.965038
C       1.215030   -1.730591   -0.216278
O       1.882737   -2.715829   -0.365631
C       0.584450   -0.725539   -1.215641
C      -0.371100   -1.303574   -2.256558
O       0.323955   -2.181217   -3.126427
H       0.852713    2.052339   -0.245147
H      -0.900572    1.914435   -0.439780
H      -0.185033    1.852641    1.178187
H      -1.138674   -0.385585    1.574255
H       1.148032   -0.801196    1.956034
H       1.404821   -0.195121   -1.715428
H      -1.207710   -1.801979   -1.748566
H      -0.787584   -0.510060   -2.886921
H       0.793077   -2.821053   -2.576881
