21

O      -0.079685    1.473723   -0.023613
C       0.033594    0.057508   -0.031899
C      -1.375589   -0.520488   -0.029159
C      -1.391609   -2.047314    0.032648
O      -0.773134   -2.545665    1.220079
C      -2.810588   -2.613507   -0.107388
O      -3.343625   -2.168093   -1.340863
C      -2.830892   -4.138925   -0.056466
O      -4.183568   -4.519473   -0.308739
H       0.807440    1.843828   -0.001838
H       0.573774   -0.294435   -0.926414
H       0.585547   -0.308010    0.846249
H      -1.923050   -0.114794    0.834006
H      -1.911914   -0.192451   -0.923785
H      -0.787691   -2.452132   -0.789603
H      -1.209743   -2.127092    1.971126
H      -3.423486   -2.237929    0.733992
H      -4.107194   -2.734825   -1.510212
H      -2.159273   -4.534667   -0.832818
H      -2.482956   -4.494002    0.920508
H      -4.209245   -5.463041   -0.488155
