17

C      -0.111518    1.431411    0.289815
O      -0.135332    0.161214   -0.345402
C      -1.338284   -0.520420   -0.163647
C      -1.342126   -1.965878   -0.721501
C      -0.044974   -2.513669   -1.268642
O      -1.636077   -2.472028    0.632944
C      -1.567621   -1.210960    1.178467
N      -1.651714   -0.821652    2.368313
H       0.865351    1.870327    0.077074
H      -0.896912    2.088899   -0.113130
H      -0.248852    1.339232    1.373114
H      -2.198217    0.087674   -0.482312
H      -2.189361   -2.190252   -1.375627
H       0.790927   -2.261595   -0.613580
H      -0.110017   -3.600834   -1.368731
H       0.152658   -2.085005   -2.255849
H      -1.780997   -1.606551    3.010341
