21

C       0.021393    1.458242    0.064302
C       0.052086   -0.053231    0.017389
O       0.655897   -0.449413   -1.191289
C       0.730042   -1.863915   -1.305976
C       1.501547   -2.452650   -0.120419
C       0.890262   -1.918446    1.158237
C      -0.196315   -2.678238    1.885637
C       1.183709   -2.505441    2.496844
O       0.783036   -0.514293    1.139704
H       1.042683    1.844532    0.023016
H      -0.541374    1.846221   -0.787599
H      -0.449209    1.793841    0.991167
H      -0.966683   -0.483734    0.063445
H      -0.285962   -2.291446   -1.342876
H       1.224130   -2.073395   -2.258212
H       1.470154   -3.546718   -0.145065
H       2.549865   -2.138119   -0.180062
H      -1.002499   -2.095854    2.316671
H      -0.484198   -3.659626    1.523633
H       1.842030   -3.366052    2.548203
H       1.277874   -1.807492    3.320882
