19

N      -0.211376    1.440797    0.187397
C      -0.054224    0.000332   -0.027512
C      -1.385360   -0.630296   -0.010242
N      -2.419265   -1.145943   -0.017620
C       0.744492   -0.422227   -1.302087
C       0.872318   -1.963879   -1.479662
C      -0.038887   -2.340322   -2.679651
C      -0.336405   -1.009208   -3.321938
C       0.091754    0.019173   -2.592673
H       0.706405    1.876080    0.205440
H      -0.721403    1.854242   -0.587611
H       0.486992   -0.396416    0.841686
H       1.731805    0.041699   -1.172585
H       1.911587   -2.216694   -1.705342
H       0.602637   -2.507474   -0.569720
H       0.453872   -3.035614   -3.368694
H      -0.966629   -2.827908   -2.356787
H      -0.862410   -0.923766   -4.266636
H      -0.025758    1.063656   -2.859967
