21

C      -0.184297    1.370826   -0.167125
C       0.030984   -0.076968    0.304360
C       0.812446   -0.081299    1.632321
C      -1.331925   -0.766448    0.507558
N       0.788901   -0.933034   -0.619123
C       1.224103   -0.489228   -1.719104
N       1.939330   -1.330562   -2.570301
C       2.452623   -0.942722   -3.783707
O       2.347979    0.164385   -4.257890
H       0.765475    1.896395   -0.312021
H      -0.747386    1.413004   -1.105439
H      -0.755136    1.924942    0.583699
H       0.256175    0.451723    2.410087
H       0.986388   -1.107385    1.966961
H       1.785193    0.405754    1.511087
H      -1.905489   -0.773397   -0.424716
H      -1.189392   -1.802588    0.825665
H      -1.920125   -0.243676    1.268608
H       1.116621    0.515971   -2.126326
H       2.074851   -2.279337   -2.250383
H       2.982081   -1.774358   -4.286188
