17

C       0.018821    1.411589   -0.036650
C       0.000734   -0.076870   -0.032937
O       0.937375   -0.823941   -0.813109
C       0.181839   -2.018299   -0.474092
C       0.471695   -2.242527    1.033801
C      -0.331638   -0.958227    1.230148
O      -0.843921   -0.416135    2.387255
C      -1.077972   -1.123788   -0.073553
O      -2.421138   -1.165669   -0.317531
H       0.998283    1.788408    0.279533
H      -0.192191    1.817107   -1.031438
H      -0.736060    1.788138    0.659507
H       0.253724   -2.813229   -1.212837
H      -0.063846   -3.109926    1.428216
H       1.528504   -2.269153    1.317669
H      -0.137650    0.054459    2.844866
H      -2.580429   -0.859004   -1.218031
