22

C      -0.170716    1.557145   -0.229314
C       0.031178    0.045037   -0.052893
C       0.834796   -0.530209   -1.228350
C       0.709396   -0.324356    1.280454
C      -0.115279   -0.122331    2.547563
C       0.558152   -0.659479    3.843338
N       0.676990    0.503282    4.739265
C       0.197179    1.479737    4.092272
O      -0.293412    1.296826    2.844255
H       0.794589    2.077736   -0.226121
H      -0.658043    1.769888   -1.186755
H      -0.777913    1.984816    0.570016
H      -0.959407   -0.433875   -0.059334
H       1.842216   -0.098084   -1.261607
H       0.941580   -1.617542   -1.150764
H       0.349093   -0.307230   -2.183767
H       0.973069   -1.390700    1.253081
H       1.656149    0.222852    1.388724
H      -1.121252   -0.535142    2.411053
H      -0.030088   -1.445383    4.327286
H       1.553402   -1.073923    3.643083
H       0.134845    2.501686    4.450477
