21

C       0.013096    1.496671    0.052210
C      -0.026534   -0.027259   -0.060321
N      -1.393676   -0.578920   -0.016062
C      -1.999636   -0.852503   -1.226895
O      -3.119324   -1.266612   -1.421802
C      -1.986290   -0.756382    1.259556
N      -1.280987   -0.405208    2.263026
C      -3.382843   -1.348330    1.317130
C      -3.919914   -1.535645    2.736369
H       1.049273    1.845959    0.002265
H      -0.543975    1.968624   -0.763667
H      -0.412849    1.818318    1.004114
H       0.422433   -0.351551   -1.003345
H       0.535188   -0.479474    0.756868
H      -1.303798   -0.639567   -2.060235
H      -1.780781   -0.582962    3.130148
H      -4.055508   -0.714559    0.732742
H      -3.383113   -2.300642    0.778968
H      -4.923447   -1.967470    2.693779
H      -3.294213   -2.214560    3.325222
H      -3.994280   -0.585140    3.275156
