20

C       0.114729    1.490377   -0.038421
C       0.063019    0.000795    0.064318
C      -0.930292   -0.814531    0.834072
C       0.555627   -1.014667    1.071637
C       1.198441   -1.719912   -0.130119
C       2.710212   -1.530431   -0.171356
C       0.796282   -3.150703   -0.453615
O       0.564749   -0.757521   -1.045795
H       1.129881    1.836580   -0.256657
H      -0.541732    1.841266   -0.843147
H      -0.220741    1.952085    0.894767
H      -1.440481   -0.292910    1.638714
H      -1.529505   -1.565828    0.328025
H       1.023793   -0.881636    2.038962
H       3.200154   -2.166142    0.574827
H       3.099021   -1.797117   -1.158964
H       2.975219   -0.489983    0.034512
H      -0.285468   -3.288390   -0.395731
H       1.117819   -3.410748   -1.467509
H       1.271762   -3.848821    0.243412
