15

C      -0.042487    1.434029    0.035411
N      -0.085036   -0.018868    0.054469
C       0.471855   -0.663021    0.970500
O       1.183858   -0.118873    2.040487
C       1.822975   -1.122452    2.752953
O       2.523248   -0.896918    3.683877
N       1.523173   -2.403226    2.194449
C       0.087917   -2.734072    2.381781
C       0.562143   -2.140838    1.104351
H       0.587586    1.876417    0.813910
H       0.314901    1.759087   -0.946879
H      -1.062896    1.817307    0.144799
H      -0.115143   -3.798207    2.425306
H      -0.492227   -2.117502    3.062005
H       0.635780   -2.737428    0.203873
