22

C      -0.162395    1.581163    0.037463
C       0.089110    0.070481    0.055085
C       0.763885   -0.416106   -1.250701
C      -0.046254   -0.200669   -2.443356
C      -0.731737   -0.025369   -3.415429
C       0.944848   -0.350751    1.258366
N       0.286195   -0.031012    2.519308
C      -0.574656   -1.067547    3.080512
C       0.746592   -0.759178    3.694190
H       0.781621    2.129100   -0.073950
H      -0.812405    1.859010   -0.796356
H      -0.624991    1.900679    0.973437
H      -0.877129   -0.444731    0.136379
H       1.729180    0.095973   -1.369320
H       0.995960   -1.485999   -1.165499
H      -1.328300    0.128365   -4.280031
H       1.180758   -1.429740    1.185671
H       1.902028    0.187779    1.235291
H      -1.494999   -0.723670    3.543452
H      -0.660808   -2.008102    2.537547
H       1.538091   -1.495650    3.561210
H       0.810661   -0.184350    4.613755
