15

N      -0.200634    1.210916    0.461740
C      -0.061419    0.054607   -0.009857
O       1.079402   -0.476309   -0.540578
C       0.909743   -1.873642   -0.793963
C      -0.579237   -2.118102   -0.582558
C      -1.172001   -2.013301    0.802284
C      -0.317257   -2.091317    2.021032
O       0.778277   -1.598132    2.138199
N      -1.154699   -0.863568   -0.142661
H       0.690369    1.705696    0.449172
H       1.193746   -2.081706   -1.829387
H       1.555618   -2.439939   -0.117124
H      -1.127443   -2.686241   -1.327981
H      -2.173886   -2.411307    0.939713
H      -0.777054   -2.676917    2.845810
