20

C      -0.217370    1.557652   -0.001381
C       0.069218    0.046045    0.036598
C       0.771775   -0.473871   -1.193774
C       2.046388   -0.867851   -1.183744
C       2.747489   -1.420041   -2.395052
O       1.874687   -1.716640   -3.467420
C       0.921597   -0.691522   -3.682511
C      -0.017187   -0.551766   -2.482941
H       0.713502    2.127550   -0.083455
H      -0.851894    1.830927   -0.850333
H      -0.732422    1.877091    0.909971
H       0.674530   -0.182241    0.920909
H      -0.881650   -0.490923    0.163193
H       2.639597   -0.805388   -0.273580
H       3.537232   -0.717225   -2.723546
H       3.252411   -2.361858   -2.147098
H       1.428633    0.269952   -3.870633
H       0.374883   -0.966762   -4.589015
H      -0.707811   -1.405876   -2.444382
H      -0.641801    0.341261   -2.611325
