15

C       0.064512    1.358151   -0.053081
N       0.238683   -0.088173   -0.072671
C       0.597795   -0.677380    0.969200
O       0.876511   -0.189149    2.240342
C       1.004035   -1.540110    2.777361
C       0.825400   -2.137001    1.361493
N      -0.206458   -3.135244    1.184550
H       0.831110    1.822859   -0.683747
H      -0.905835    1.606529   -0.495809
H       0.122725    1.800904    0.948136
H       1.969392   -1.684227    3.267367
H       0.187149   -1.769728    3.467912
H       1.762768   -2.524205    0.952264
H      -1.120129   -2.728951    1.368327
H      -0.224857   -3.438938    0.215831
