20

C       0.304134    1.576336   -0.501276
C       0.155446    0.094866   -0.238475
C       1.380984   -0.806365   -0.108828
C       0.524174   -0.501866    1.079647
C       0.893219    0.153060    2.404866
C       0.086290   -1.013166    3.025388
C      -1.127557   -0.679481    3.867296
O      -0.275762   -1.506440    1.706232
H       1.162636    1.989680    0.039121
H       0.460131    1.777141   -1.566989
H      -0.585808    2.131289   -0.183402
H      -0.702648   -0.376760   -0.711825
H       1.318321   -1.807024   -0.523123
H       2.364962   -0.348825   -0.166865
H       1.956737    0.183429    2.648502
H       0.453841    1.140550    2.570442
H       0.718372   -1.749255    3.539843
H      -1.752095    0.067761    3.367957
H      -1.733288   -1.575283    4.036746
H      -0.820361   -0.284704    4.842247
