20

C      -0.045688    1.567726    0.125539
N       0.021588    0.125503    0.129827
C      -1.224299   -0.630474    0.408791
C      -0.430789   -1.562563    1.347153
C       0.737229   -0.544428    1.239396
C       1.620548   -1.726393    0.790309
N       0.402567   -2.560015    0.638137
C       0.437397   -3.911963    1.143679
H       0.957583    1.988119   -0.003905
H      -0.657957    1.906029   -0.717526
H      -0.479559    1.997297    1.050376
H      -1.972075   -0.036229    0.959850
H      -1.691987   -1.085601   -0.470570
H      -0.889858   -1.896211    2.281430
H       1.083414    0.103296    2.049057
H       2.204512   -1.594776   -0.126648
H       2.280093   -2.075160    1.602297
H       0.742579   -3.983542    2.206617
H      -0.551047   -4.373602    1.044138
H       1.142412   -4.508254    0.554211
