14

C       1.074250    0.937120   -0.058277
N       0.159475    0.146264   -0.876258
C      -0.313715    0.645946    0.424675
C      -0.565166   -0.373028    1.467055
C      -0.111436   -1.693033    1.387404
N      -0.338118   -2.539807    2.375921
N      -1.016964   -2.104953    3.441794
N      -1.480786   -0.880704    3.503613
N      -1.270167    0.002593    2.530064
H       1.911499    0.385742    0.360418
H       1.294656    1.963303   -0.338708
H      -0.234629    0.700790   -1.630573
H      -1.003315    1.484267    0.462355
H       0.420362   -2.064157    0.517337
