20

C       0.036472    1.605581    0.066417
C       0.044316    0.077571   -0.022463
N       0.710108   -0.424595   -1.227667
C       2.140958   -0.646539   -1.134984
C      -0.046296   -0.592749   -2.351724
O      -1.242725   -0.335671   -2.370476
C       0.638155   -1.120686   -3.613764
C      -0.382010   -1.332433   -4.722250
O      -0.206998   -0.975556   -5.857545
H       1.050620    2.018374    0.055138
H      -0.520739    2.027195   -0.773742
H      -0.445478    1.927651    0.994795
H       0.557481   -0.357795    0.842275
H      -0.980549   -0.296608   -0.035909
H       2.563383   -0.906110   -2.103889
H       2.650622    0.257933   -0.781257
H       2.368706   -1.458195   -0.431649
H       1.410513   -0.438151   -3.980545
H       1.122647   -2.087023   -3.415233
H      -1.298802   -1.868841   -4.410209
