19

C       0.169430    1.405698    0.104836
O       0.144380   -0.003843    0.045207
C       0.579893   -0.524355   -1.196669
C       0.571546   -2.058153   -1.045626
O       1.261649   -2.429780    0.138754
C      -0.887455   -2.587265   -0.974866
O      -1.618657   -2.339866   -2.157663
C       1.237223   -2.664103   -2.202860
C       1.715329   -3.163657   -3.186485
H       1.184327    1.798613   -0.057338
H      -0.500125    1.851210   -0.645041
H      -0.170386    1.695198    1.101750
H      -0.094970   -0.230513   -2.011373
H       1.597488   -0.175657   -1.425059
H       1.048696   -1.735631    0.777988
H      -0.841772   -3.654545   -0.720910
H      -1.401846   -2.057055   -0.169253
H      -1.166830   -2.803999   -2.872781
H       2.169663   -3.605152   -4.039476
