23

C       0.271371    1.818178   -0.401425
C       0.298927    0.312575   -0.251597
C       1.545405   -0.541431   -0.441308
C       2.858368    0.131516   -0.229911
C       3.029824    0.546867    1.030822
C       4.202531    1.296714    1.581066
C       1.853527    0.128653    1.911870
C       1.290632    1.222233    2.834247
C       0.857222   -0.475829    0.916160
H       1.214147    2.278556   -0.099857
H       0.089072    2.091147   -1.447406
H      -0.531303    2.261482    0.198322
H      -0.592740   -0.161126   -0.659062
H       1.487607   -1.412099   -1.086806
H       3.574676    0.286821   -1.030612
H       4.973134    1.447074    0.819921
H       3.912566    2.283357    1.963951
H       4.657282    0.760172    2.424566
H       2.204512   -0.684424    2.568576
H       0.943749    2.091899    2.270847
H       0.443041    0.837454    3.410242
H       2.046824    1.563287    3.549264
H       0.254285   -1.306497    1.267145
