21

C      -0.189865    1.563792    0.098367
C       0.004789    0.048214   -0.030458
C       0.746542   -0.371175   -1.323275
C       2.279823   -0.237928   -1.195158
C       2.750532   -0.738706    0.175700
C       2.246325   -2.151346    0.520085
O       0.945761   -1.917616    1.064223
C       0.787341   -0.503630    1.173096
O       2.094847    0.030544    1.193532
H       0.770099    2.087088    0.109738
H      -0.784702    1.951588   -0.734477
H      -0.713510    1.817130    1.027030
H      -0.980303   -0.433601   -0.024824
H       0.496995   -1.414623   -1.541107
H       0.386221    0.217268   -2.173592
H       2.779034   -0.794171   -1.997174
H       2.590036    0.808249   -1.291164
H       3.828198   -0.623061    0.309470
H       2.172734   -2.807517   -0.354194
H       2.881835   -2.632093    1.273810
H       0.305166   -0.271496    2.128521
