16

O       0.044855   -0.054507    0.201984
C      -0.015372    1.131991   -0.004780
C      -1.327460    1.901295   -0.077529
C      -1.287725    3.062779   -1.084385
C       0.020492    3.850841   -0.909304
O       1.141248    3.008074   -1.114593
C       1.248043    1.986326   -0.132973
C       0.115951    4.959899   -1.867685
N       0.147216    5.843447   -2.609979
H      -2.137847    1.199435   -0.286493
H      -1.502095    2.301811    0.932362
H      -1.317291    2.683419   -2.110457
H      -2.148500    3.724741   -0.950278
H       0.055166    4.285525    0.105582
H       1.467197    2.421935    0.859011
H       2.086497    1.351309   -0.421847
