16

O       0.231059    1.328249    0.336657
C       0.045803   -0.035846    0.064652
C      -0.687929   -0.877445    1.084126
C      -1.384487   -0.438752   -0.181009
C       1.131212   -0.632294   -0.746522
N       1.264486   -1.946478   -0.951653
N       2.341187   -2.025076   -1.725748
N       2.932618   -0.884231   -2.041488
C       2.174092    0.025481   -1.427299
H       0.926347    1.403726    1.000370
H      -0.394520   -1.916391    1.178844
H      -0.965736   -0.377279    2.005160
H      -2.118440    0.354930   -0.103783
H      -1.568642   -1.178693   -0.950905
H       2.693834   -2.911503   -2.048477
H       2.389454    1.078235   -1.498496
