15

O      -0.180702    1.429970   -0.041396
C      -0.062126    0.039820    0.020583
C      -0.477534   -0.688310    1.272849
C      -1.354599   -0.710578    0.048543
C      -2.769572   -0.158899   -0.178447
N      -3.012199   -1.378338   -0.967922
C      -1.740580   -1.893425   -0.827014
O      -1.192834   -2.876148   -1.251623
H       0.554255    1.814647    0.447996
H       0.740779   -0.392989   -0.575988
H       0.037095   -1.606224    1.537873
H      -0.816662   -0.080398    2.105428
H      -3.397812   -0.075973    0.713814
H      -2.807427    0.771091   -0.752882
H      -3.768631   -1.636918   -1.582418
