21

C      -0.307143    1.514209   -0.039231
C      -0.032889    0.015035    0.023595
C       0.779700   -0.543033   -1.160992
C       1.428053   -1.859452   -0.674281
O       2.819558   -1.779130   -0.960417
C       1.119685   -1.930834    0.844771
C       0.763128   -0.483369    1.267703
C       1.944535    0.323773    1.558072
C       2.911377    0.992243    1.812731
H       0.628307    2.081490   -0.040230
H      -0.861839    1.768896   -0.948401
H      -0.902018    1.847820    0.817784
H      -0.995274   -0.514156    0.061955
H       0.167668   -0.677432   -2.056668
H       1.593476    0.143297   -1.415680
H       0.995688   -2.731622   -1.185769
H       3.235360   -2.588298   -0.646236
H       0.243246   -2.566527    1.014495
H       1.953437   -2.351267    1.412923
H       0.121159   -0.483042    2.156415
H       3.771257    1.575571    2.030735
