22

C       0.157422    1.381941   -0.093240
O       0.063454   -0.020365   -0.060322
C       0.713511   -0.587098    1.052878
C       0.587358   -2.102305    1.017532
C      -0.849115   -2.591213    0.864027
O       1.392457   -2.554764   -0.093847
C       1.921850   -3.792128   -0.029199
C       2.716649   -4.072658   -1.280271
N       1.735706   -4.552582    0.972303
H       1.204153    1.720881   -0.151701
H      -0.374555    1.725539   -0.983745
H      -0.301395    1.844758    0.795669
H       1.780579   -0.310466    1.062695
H       0.266347   -0.219251    1.993137
H       1.022675   -2.507659    1.935829
H      -1.280524   -2.213405   -0.064927
H      -0.871577   -3.682294    0.867635
H      -1.458337   -2.231381    1.699717
H       2.065477   -4.014662   -2.157805
H       3.496869   -3.316431   -1.408375
H       3.176511   -5.061391   -1.240332
H       2.222690   -5.435931    0.843588
