23

C      -0.053600    1.520887    0.029137
C      -0.006428    0.002455   -0.000685
O      -1.329416   -0.491106    0.016173
C      -1.404523   -1.900068   -0.007987
C      -2.872874   -2.313764    0.039060
C      -3.072121   -3.851790   -0.032553
C      -4.247145   -4.171271    0.928092
C      -4.311365   -2.943741    1.806640
C      -3.576903   -1.942805    1.326018
H       0.958949    1.935247    0.015266
H      -0.598369    1.904587   -0.838188
H      -0.560064    1.871006    0.933156
H       0.519355   -0.350538   -0.904637
H       0.555631   -0.384543    0.866599
H      -0.925715   -2.295275   -0.921362
H      -0.865855   -2.330415    0.854591
H      -3.367948   -1.814172   -0.806669
H      -3.246435   -4.206236   -1.051493
H      -2.163735   -4.348174    0.329230
H      -5.192675   -4.308681    0.384327
H      -4.085731   -5.096098    1.493802
H      -4.924575   -2.897724    2.700414
H      -3.487758   -0.952758    1.757123
