17

O       0.103322    1.422553   -0.106382
C       0.080861    0.030976   -0.082251
C      -1.293132   -0.643150    0.050242
N      -2.058023   -0.077498   -1.081795
C      -1.179178   -1.249402   -1.311674
C       0.227896   -0.711371   -1.486850
O       0.401360    0.089060   -2.635893
C       1.588065    0.726180   -2.745178
N       1.824631    1.436159   -3.760903
H      -0.636895    1.683599   -0.674312
H       0.820338   -0.307570    0.645850
H      -1.786036   -1.017164    0.938391
H      -3.015871   -0.417162   -1.021676
H      -1.582192   -2.179084   -1.691434
H       0.980789   -1.507202   -1.441899
H       2.263499    0.550483   -1.898752
H       2.754751    1.843161   -3.687036
