18

O      -0.234678    1.313667    0.046440
N      -0.002592   -0.094382    0.032864
C      -1.109521   -0.710722   -0.013562
C      -1.309073   -2.196291    0.016155
C      -2.496127   -2.333080   -0.997387
C      -3.264684   -1.516445    0.082169
C      -2.412165   -2.288507    1.130711
C      -2.541320   -0.159265    0.005621
O      -2.805210    0.647710    1.133397
H       0.657798    1.665169    0.126806
H      -0.426844   -2.832350   -0.003285
H      -2.374107   -1.900642   -1.994784
H      -2.853149   -3.362189   -1.071225
H      -4.352179   -1.484281    0.124460
H      -2.753368   -3.315539    1.276402
H      -2.219035   -1.800439    2.087076
H      -2.775404    0.372688   -0.928812
H      -2.119515    1.327519    1.138852
