17

O      -0.003713    1.355915   -0.666194
C       0.042691    0.063236   -0.063353
C      -1.351209   -0.502773    0.149121
C      -2.285990    0.338479    1.009515
O      -2.566589    1.604268    0.454467
O      -1.946877   -1.087343   -1.013445
C      -1.613221   -1.964934    0.065059
C      -0.538403   -2.973383   -0.197343
O      -0.388740   -3.958447    0.478431
H      -0.395475    1.250315   -1.541622
H       0.654492   -0.619600   -0.663323
H       0.537948    0.201961    0.902834
H      -3.243265   -0.181811    1.108469
H      -1.843670    0.418180    2.017797
H      -1.717949    2.002822    0.218817
H      -2.453082   -2.356578    0.638677
H       0.099958   -2.754523   -1.080008
