17

C      -0.002806    1.492605    0.062575
C       0.007547    0.004439   -0.047724
C      -0.032459   -0.821725   -1.139600
C       0.002102   -2.172831   -0.660622
C      -0.020345   -3.355153   -1.437384
N      -0.038568   -4.327795   -2.068493
C       0.062723   -2.131286    0.725210
C       0.118057   -3.233557    1.727362
N       0.064893   -0.808880    1.070231
H       0.898243    1.875262    0.557547
H      -0.047257    1.937206   -0.933755
H      -0.868596    1.857836    0.628581
H      -0.081044   -0.514624   -2.172038
H       1.030612   -3.188089    2.333756
H      -0.736928   -3.204377    2.413420
H       0.103834   -4.197161    1.214190
H       0.103342   -0.472418    2.018093
