20

O      -0.181645    1.465955   -0.087546
C      -0.014004    0.058789   -0.150487
C      -1.365669   -0.575871    0.188601
C      -1.347917   -2.073674    0.154325
C      -1.596857   -2.916960    1.160790
C      -1.568118   -4.328165    0.690493
C      -2.582868   -4.676005   -0.346090
N      -1.225301   -4.300534   -0.753558
C      -1.063527   -2.874020   -1.109742
H       0.662008    1.879504   -0.291894
H       0.312113   -0.258274   -1.153531
H       0.744799   -0.290932    0.567015
H      -1.672742   -0.222549    1.178281
H      -2.101514   -0.186661   -0.528341
H      -1.820518   -2.633972    2.182656
H      -1.113096   -5.103974    1.301182
H      -2.835438   -5.714796   -0.543226
H      -3.392742   -3.965330   -0.500684
H      -1.735334   -2.604852   -1.935917
H      -0.039850   -2.714396   -1.474899
