18

N       0.011130   -1.139480   -0.017463
C       0.015867    0.017959   -0.027817
C      -0.001361    1.454591   -0.021468
C       0.444832    2.186222   -1.273184
C       1.340832    2.194392   -0.067328
C       1.507791    3.467896    0.758645
C       0.306958    3.719657    1.677636
O      -0.920332    3.457843    1.010483
C      -1.118785    2.075574    0.822224
H       0.731265    1.590922   -2.131724
H      -0.098243    3.098499   -1.496594
H       2.213901    1.554353   -0.128118
H       2.414228    3.399029    1.368742
H       1.642812    4.321701    0.085588
H       0.376048    3.087997    2.577457
H       0.269413    4.763648    1.998741
H      -2.084114    1.960558    0.320782
H      -1.169244    1.556464    1.792647
