17

C      -0.088384    1.376288    0.067408
O       0.042267   -0.034232   -0.016347
C       0.732674   -0.542747   -1.139197
C       2.194534   -0.082987   -1.232364
C       0.653283   -2.084564   -0.975847
O       1.224353   -2.777059   -2.060178
C       0.015441   -0.192841   -2.395150
N      -0.551259    0.040067   -3.375746
H       0.879330    1.873491    0.208734
H      -0.577421    1.790005   -0.824488
H      -0.715669    1.571673    0.939128
H       2.671462   -0.239466   -0.260429
H       2.710695   -0.685967   -1.982263
H       2.282255    0.969615   -1.508551
H       1.228756   -2.349332   -0.084539
H      -0.395716   -2.354503   -0.800845
H       0.641880   -2.679647   -2.822144
