19

C      -0.043626    1.556283    0.006224
C       0.037087    0.029380   -0.021512
C       0.679996   -0.500876   -1.304735
C       0.930278   -2.006801   -1.199647
C       1.893870   -2.296952   -0.044116
C       1.558013   -1.571407    1.255312
O       1.992608   -1.938829    2.331786
N       0.785264   -0.445755    1.142379
H       0.956177    1.997691   -0.054561
H      -0.639495    1.922852   -0.835245
H      -0.517204    1.910856    0.928286
H      -0.991429   -0.366710    0.024792
H       0.024356   -0.266216   -2.149572
H       1.630265    0.022180   -1.476261
H      -0.023676   -2.522911   -1.030174
H       1.335493   -2.400006   -2.137574
H       1.952649   -3.361972    0.192524
H       2.910832   -1.985651   -0.316764
H       0.570733   -0.022980    2.035621
