19

C      -0.144454    1.594875   -0.019792
C       0.031200    0.086201    0.018632
C       1.193725   -0.587633   -0.758394
O       2.352904    0.118908   -0.266267
C       2.220310   -0.141787    1.142552
O       3.001856   -1.258728    1.477919
C       2.443630   -2.341458    0.706904
C       1.097702   -1.792339    0.235861
C       0.745929   -0.616044    1.205086
H       0.818230    2.104298    0.067626
H      -0.607630    1.910955   -0.960810
H      -0.791614    1.934555    0.796062
H      -0.913139   -0.427600   -0.190981
H       1.244925   -0.681498   -1.842640
H       2.555370    0.711306    1.729997
H       3.112165   -2.591595   -0.125602
H       2.342602   -3.219488    1.353860
H       0.310493   -2.515366    0.029826
H       0.309843   -0.755616    2.193022
