16

O      -0.033171    1.353206    0.253223
C       0.028990    0.019317    0.009921
C       0.039441   -0.733480   -1.139059
C       0.123292   -2.104500   -0.723226
C       0.154142   -2.125103    0.648493
N       0.099251   -0.814285    1.086489
C       0.171960   -3.288847   -1.604472
C       1.315625   -4.222525   -1.619654
O       0.095323   -4.567606   -0.965248
H      -0.098277    1.811257   -0.589845
H       0.003248   -0.360301   -2.151177
H       0.183262   -2.952577    1.335709
H       0.076198   -0.503733    2.041947
H      -0.414038   -3.217275   -2.522525
H       1.542218   -4.796443   -2.518290
H       2.158576   -4.023113   -0.960120
