19

C      -0.127050    1.409220    0.086470
O      -0.039179   -0.002350   -0.004578
C      -1.253042   -0.697040   -0.069351
C      -0.899618   -2.189504    0.046653
O      -0.424313   -2.515983    1.330035
O      -2.093922   -0.363246    1.052001
C      -3.365516    0.109653    0.616001
C      -3.290957    0.103247   -0.884427
C      -2.107938   -0.356624   -1.270553
H       0.900249    1.776423    0.130992
H      -0.626203    1.851278   -0.786346
H      -0.658665    1.717878    0.993642
H      -1.798355   -2.769346   -0.219122
H      -0.108945   -2.430916   -0.670037
H      -1.025908   -2.085695    1.950239
H      -4.156542   -0.554505    0.994407
H      -3.554822    1.112290    1.026925
H      -4.108315    0.426989   -1.516775
H      -1.747721   -0.484373   -2.282933
