17

C       0.043189    1.511328   -0.210550
C       1.587696    1.583834    0.124656
C       1.535869    0.133895    0.643470
O       1.677636   -0.355508    1.971905
C       0.930384   -1.512436    1.469233
C      -0.499833   -0.911199    1.265345
C       0.040058    0.025877    0.187017
O       0.434019   -0.911674   -0.877039
C       1.520614   -1.237600   -0.009806
H      -0.566890    2.135204    0.447031
H      -0.236065    1.705259   -1.247459
H       2.252097    1.749931   -0.725502
H       1.839279    2.299107    0.910040
H       1.088652   -2.420054    2.048670
H      -1.247753   -1.615561    0.897117
H      -0.836355   -0.423397    2.181540
H       2.320966   -1.850806   -0.427985
