16

C      -0.070255    1.477642   -0.096253
C       0.033969   -0.037853    0.049651
C       0.781576   -0.464045    1.298209
O       1.249965    0.316329    2.099958
C       0.937980   -1.921743    1.533848
C       1.546156   -2.608677    2.543189
C       1.347505   -3.963357    2.183523
N       0.679076   -4.084182    1.058561
O       0.417132   -2.790849    0.642637
H       0.920895    1.935715   -0.143021
H      -0.615332    1.736349   -1.007751
H      -0.592204    1.918286    0.756862
H      -0.956414   -0.511826    0.074074
H       0.536121   -0.494620   -0.813670
H       2.050828   -2.194965    3.399059
H       1.665190   -4.857629    2.700422
