21

C      -0.175586    1.489475    0.034209
C       0.004127   -0.002352    0.030583
C      -0.870631   -0.947513    0.832700
C       0.617404   -0.839437    1.105227
O       1.425524   -1.799614    0.475819
C       1.620485   -1.358673   -0.876494
C       2.904893   -0.532778   -0.976648
C       1.616630   -2.572559   -1.789149
O       0.481089   -0.545713   -1.185142
H       0.759965    2.000095   -0.215168
H      -0.931049    1.786998   -0.700679
H      -0.508557    1.834671    1.017387
H      -1.547266   -0.512076    1.561786
H      -1.219607   -1.849134    0.343000
H       1.001901   -0.452432    2.043457
H       3.771824   -1.146545   -0.717138
H       3.032620   -0.148922   -1.992442
H       2.862161    0.314547   -0.286981
H       0.677814   -3.116959   -1.670963
H       1.719472   -2.261160   -2.831787
H       2.447598   -3.235954   -1.536323
