20

C      -1.650565    0.527082    1.890551
C      -0.853556   -0.455050    1.060649
C       0.028091   -0.001565   -0.047773
N       0.612858   -0.602093    1.153580
C       1.370231    0.261064    2.065490
C       1.798803   -0.554214    3.303450
N       0.610896   -1.047308    3.997849
C       2.559976    0.782730    1.376808
N       3.498136    1.203338    0.849830
H      -1.268348    1.548842    1.815942
H      -2.685773    0.542240    1.534698
H      -1.648570    0.236644    2.945687
H      -1.338373   -1.423807    0.948044
H       0.144060   -0.579560   -0.960239
H       0.133307    1.074272   -0.179534
H       0.792007    1.127538    2.417274
H       2.489715   -1.341857    2.968489
H       2.350708    0.108527    3.977550
H       0.223714   -1.830451    3.480439
H       0.871256   -1.405360    4.910661
