20

C       0.038889    1.496479    0.098941
C       1.484999    1.903500   -0.137456
C       2.533939    1.208178    0.654473
C       2.245672    0.455893    1.951781
C       1.411490   -0.823810    1.860636
O       0.122937   -0.662245    1.305393
C       0.052217   -0.050534    0.021062
C       1.261002   -0.320682   -0.898496
N       2.235790    0.771262   -0.730793
H      -0.368346    1.830917    1.057239
H      -0.595106    1.908034   -0.694204
H       1.680895    2.888679   -0.552849
H       3.500476    1.707824    0.682429
H       3.203961    0.172617    2.403837
H       1.767304    1.149773    2.655170
H       1.981584   -1.591627    1.317427
H       1.241553   -1.212540    2.869621
H      -0.876384   -0.431764   -0.412305
H       1.719253   -1.299697   -0.741248
H       0.927551   -0.285080   -1.941965
