17

O      -0.393171    1.210352   -0.152872
C       0.967379    1.255205    0.282937
C       0.259279   -0.024228    0.149181
C      -0.224841   -0.754095    1.345947
O      -0.236988   -0.083246    2.642625
C      -0.745003   -1.423490    2.913598
C      -1.568344   -1.528565    1.595566
C      -0.934480   -2.887801    1.229347
C       0.224702   -2.141629    1.924673
H       1.694359    1.546724   -0.473629
H       1.120844    1.663270    1.279035
H       0.462856   -0.655821   -0.716694
H      -1.019836   -1.680139    3.935621
H      -2.572568   -1.145078    1.420114
H      -1.328727   -3.764074    1.750718
H      -0.813916   -3.103924    0.164475
H       1.247955   -2.457559    2.128145
