24

C      -1.197092    0.905206    0.064065
C      -0.875219   -0.523815   -0.386754
C       0.030608   -0.643833   -1.629108
C      -0.613870    0.024152   -2.844773
C       1.520526   -0.293435   -1.267109
C       1.862815   -1.797809   -1.286807
C       0.464330   -2.133297   -1.755114
N       1.624928   -2.419796   -2.563822
C       1.974587   -1.818436   -3.840332
H      -0.286204    1.484369    0.250658
H      -1.787356    1.446459   -0.681049
H      -1.775529    0.893285    0.993143
H      -0.398568   -1.063848    0.441355
H      -1.814283   -1.056506   -0.591770
H      -0.733393    1.101568   -2.689085
H      -0.029048   -0.109696   -3.755334
H      -1.610766   -0.394182   -3.028940
H       2.069133    0.331349   -1.978817
H       1.621729    0.153225   -0.275411
H       2.494831   -2.307596   -0.566607
H      -0.174308   -2.969054   -1.479325
H       2.008252   -0.721541   -3.849818
H       2.966755   -2.182934   -4.127656
H       1.262402   -2.148986   -4.602630
