23

C      -0.146447    1.611271    0.005127
C       0.010800    0.096365    0.018792
C       1.221975   -0.595402   -0.667010
C       2.136500   -0.163080    0.525945
C       3.202054   -1.228242    0.765193
C       2.347926   -2.498824    0.539593
C       0.981270   -1.875215    0.220806
C      -0.133496   -2.861549   -0.063325
C       0.782747   -0.624436    1.159104
H       0.779124    2.144979    0.235212
H      -0.488863    1.952693   -0.978539
H      -0.899654    1.925555    0.736792
H      -0.954919   -0.359102   -0.220760
H       1.486206   -0.583865   -1.728833
H       2.437001    0.880070    0.614844
H       4.034910   -1.143761    0.059369
H       3.622548   -1.171121    1.774594
H       2.710869   -3.116582   -0.289456
H       2.298630   -3.143684    1.424129
H      -0.284774   -3.527416    0.794487
H      -1.091338   -2.382536   -0.281499
H       0.122859   -3.493995   -0.921479
H       0.535283   -0.646656    2.224787
