14

O      -0.014574    1.391547    0.196911
C       0.016374    0.016836    0.036880
C      -1.328923   -0.723412    0.050580
N      -2.075828   -0.114371   -1.074974
C      -1.133410   -1.222310   -1.336079
C       0.257986   -0.583435   -1.438340
C       0.489426    0.360375   -2.516984
N       0.672428    1.120829   -3.368105
H      -0.751959    1.713346   -0.341624
H       0.751644   -0.386801    0.734626
H      -1.843482   -1.167923    0.892690
H      -3.020982   -0.492335   -1.075772
H      -1.458941   -2.144506   -1.798408
H       1.056461   -1.328882   -1.415875
