21

C      -0.006787    1.579077    0.060092
C       0.107389    0.058446    0.036954
C       1.167862   -0.648038   -0.811235
C       2.447350   -0.758464    0.022286
C       1.319047   -1.761942    0.190858
C       0.714012   -0.727012    1.245408
C      -0.096569   -1.043611    2.472582
C       2.164584   -0.159759    1.395319
O       2.907074   -0.761504    2.437542
H       0.962665    2.066996    0.193766
H      -0.430278    1.946257   -0.881337
H      -0.667681    1.913591    0.867992
H      -0.872043   -0.378888   -0.194829
H       1.212676   -0.728884   -1.890861
H       3.414164   -0.911016   -0.441827
H       1.270080   -2.835200    0.075393
H       0.508838   -1.573066    3.215108
H      -0.458871   -0.122347    2.944547
H      -0.968933   -1.660071    2.231100
H       2.276648    0.917274    1.551294
H       2.957716   -1.705684    2.243832
