15

O      -0.334811    0.023371    0.195005
C      -0.062402    1.143499   -0.141538
C       1.341607    1.752682   -0.044036
N       1.537487    2.751769   -1.099967
C       2.085325    3.993296   -0.530945
C       1.867757    3.806522    0.957740
C       1.475732    2.565978    1.221709
C       3.515907    4.200849   -0.843665
N       4.630594    4.345223   -1.113991
H      -0.814840    1.856453   -0.545659
H       2.061733    0.921028   -0.058209
H       2.068714    2.408362   -1.887917
H       1.544492    4.869404   -0.915997
H       2.058408    4.598653    1.668956
H       1.262518    2.149528    2.197466
