19

C      -0.094951    1.501999   -0.061803
C      -0.213797    0.015244    0.272144
C       0.744875   -0.438112    1.352648
O       1.363602    0.337561    2.051330
C       0.961135   -1.942437    1.576528
O       1.928883   -2.137975    2.570375
C      -0.356530   -2.654753    1.965596
C      -0.131348   -4.135837    2.205059
O      -0.756943   -5.004909    1.653353
H       0.901199    1.739113   -0.445000
H      -0.830960    1.783635   -0.819136
H      -0.257921    2.113771    0.828107
H      -1.229473   -0.221664    0.618705
H      -0.061824   -0.613634   -0.614286
H       1.313122   -2.364093    0.619536
H       2.172482   -1.243351    2.864214
H      -0.716950   -2.208068    2.902214
H      -1.123901   -2.546491    1.194881
H       0.668138   -4.367046    2.937736
