19

O      -0.015768    1.416998    0.020476
C       0.035645    0.000682   -0.025618
C      -1.398629   -0.514490    0.064920
C      -1.464047   -2.014874   -0.230532
C      -0.978618   -2.311404   -1.656953
C       0.253133   -1.531531   -2.017891
C       0.723766   -0.500311   -1.298759
C       1.908539    0.198702   -1.665383
C       2.899645    0.844905   -1.902002
H       0.863828    1.748375   -0.197724
H       0.612063   -0.379565    0.836676
H      -1.799700   -0.285564    1.056940
H      -1.999812    0.044154   -0.662436
H      -0.832982   -2.556093    0.486163
H      -2.483547   -2.388750   -0.093628
H      -0.782125   -3.383545   -1.784668
H      -1.770751   -2.075173   -2.384197
H       0.783545   -1.827563   -2.919328
H       3.779984    1.388355   -2.141885
