21

C       0.079101    1.549937    0.016711
C       0.098233    0.022485    0.009880
C       0.868843   -0.604638   -1.199930
C       1.480583   -1.829176   -0.586054
C       1.404123   -1.836071    0.741384
C       2.095446   -3.042304    1.291625
O       2.548210   -3.753459    0.131385
C       2.231232   -3.030058   -1.065741
C       0.725219   -0.617588    1.293607
H       1.095903    1.955294    0.077383
H      -0.383219    1.946938   -0.893453
H      -0.484898    1.937769    0.871837
H      -0.936047   -0.336343   -0.051556
H       0.202413   -0.813098   -2.045268
H       1.642731    0.078659   -1.580741
H       2.955232   -2.789166    1.933764
H       1.433645   -3.694191    1.883193
H       1.642128   -3.675392   -1.736107
H       3.158910   -2.770788   -1.602253
H       1.449867    0.061268    1.767796
H      -0.033732   -0.834381    2.054644
