23

C      -0.353750    1.392644    0.270196
C       0.182463    0.038616   -0.216981
C       1.056088    0.187358   -1.470869
C       0.969158   -0.633789    0.889265
O       0.236292   -1.176060    1.994744
C       0.982574   -2.080337    1.166181
C       0.224850   -3.109162    0.398337
C       0.990542   -4.214031   -0.294314
C       0.164798   -4.524268    0.924739
H       0.469223    2.073284    0.519077
H      -0.962159    1.874431   -0.501926
H      -0.969698    1.265914    1.164982
H      -0.676387   -0.596598   -0.460474
H       1.944580    0.794869   -1.261561
H       1.395787   -0.785857   -1.839057
H       0.501984    0.680889   -2.275451
H       1.857545   -0.070543    1.193521
H       1.877973   -2.476898    1.653877
H      -0.667153   -2.748075   -0.100571
H       0.636340   -4.548475   -1.262720
H       2.070917   -4.222340   -0.191581
H       0.686581   -4.738969    1.851528
H      -0.760693   -5.074297    0.797929
