16

N       0.093426    1.428794    0.104264
C       0.024110    0.043725    0.022207
C      -1.047343   -0.801607   -0.186921
N      -0.584034   -2.078786   -0.277824
N       0.707140   -2.089167   -0.130917
N       1.087734   -0.793179    0.041981
N      -2.386639   -0.382487   -0.287699
C      -3.232456   -1.065185   -1.282996
C      -3.420990   -1.326568    0.165063
H       0.588318    1.768563    0.921043
H      -0.846648    1.809856    0.094122
H       2.065210   -0.572933    0.141233
H      -3.921867   -0.419473   -1.819142
H      -2.761452   -1.847418   -1.870658
H      -3.076806   -2.283556    0.544932
H      -4.250708   -0.873446    0.699960
