19

C       0.005117    1.488493    0.089355
C       0.002619   -0.022602   -0.033713
C       0.783496   -0.606341   -1.238605
C       1.065976   -2.017842   -0.752423
C       0.949310   -1.914169    0.761237
O       0.669481   -0.582218    1.116953
C      -0.126654   -2.610344   -0.025169
O      -1.392355   -2.029585   -0.183920
C      -1.414788   -0.609873   -0.029792
H       1.031497    1.854649    0.176556
H      -0.456128    1.948725   -0.789418
H      -0.548647    1.806396    0.977702
H       0.186398   -0.571114   -2.154941
H       1.714067   -0.054323   -1.405743
H       1.793645   -2.644262   -1.254407
H       1.586547   -2.419357    1.476885
H      -0.215015   -3.688792    0.044116
H      -1.897976   -0.350804    0.922469
H      -2.016429   -0.198065   -0.850266
