20

C      -0.170296    1.455254   -0.125177
C       0.027639   -0.042676   -0.032979
C      -1.226253   -0.931615    0.266980
C      -0.467222   -1.641650    1.426665
C       0.802251   -0.805490    1.128392
C       1.759196   -1.436375    0.074699
C       0.986152   -0.702501   -1.004467
N       1.080958   -0.559642   -2.259103
O       2.138539   -1.335331   -2.777407
H       0.787680    1.984115   -0.161717
H      -0.725725    1.714358   -1.033274
H      -0.735896    1.829346    0.735322
H      -2.079720   -0.338424    0.606010
H      -1.556697   -1.563362   -0.560452
H      -0.900505   -1.440734    2.409336
H      -0.342622   -2.723804    1.328597
H       1.273732   -0.281559    1.960308
H       2.798107   -1.097248    0.143875
H       1.765748   -2.528971    0.008567
H       2.105497   -1.119299   -3.715314
