19

C      -0.009137    1.496641    0.086061
C       0.132405   -0.011988    0.072792
C       0.603325   -0.625674   -1.252855
O       1.361907   -1.770866   -0.864545
C       1.614949   -1.657517    0.540967
O       1.195660   -0.400610    0.954845
C       0.835282   -2.820203    1.207551
C       1.400906   -4.198938    0.948181
O      -0.165089   -2.614939    1.850121
H       0.929705    1.973966   -0.210056
H      -0.796900    1.809652   -0.606390
H      -0.276691    1.846364    1.086347
H      -0.796927   -0.492879    0.401831
H      -0.221577   -0.943541   -1.897064
H       1.244454    0.074148   -1.806508
H       2.693542   -1.748351    0.732131
H       2.388643   -4.290676    1.415834
H       0.734272   -4.961278    1.352491
H       1.540825   -4.344552   -0.127662
