25

C      -0.018358    1.499374    0.235483
C      -0.091130   -0.010048   -0.017284
C       0.668547   -0.507143   -1.267541
C       0.569382   -2.047183   -1.343776
C       1.343074   -2.696567   -2.495822
C       0.104395    0.140507   -2.542996
O      -1.264008   -0.222566   -2.666314
O       2.030296   -0.052650   -1.287523
C       2.872814   -0.464460   -0.234577
H       1.015343    1.856659    0.231141
H      -0.567898    2.062848   -0.524452
H      -0.460355    1.746830    1.205587
H       0.287810   -0.547844    0.859997
H      -1.135878   -0.314728   -0.131416
H       0.909496   -2.467998   -0.390006
H      -0.492386   -2.299128   -1.424578
H       0.899693   -2.455284   -3.466491
H       2.385236   -2.365322   -2.515152
H       1.333707   -3.786439   -2.396862
H       0.231317    1.228624   -2.471952
H       0.694663   -0.201422   -3.403129
H      -1.611043    0.184500   -3.464507
H       2.527963   -0.113656    0.747632
H       2.993642   -1.555341   -0.188784
H       3.851721   -0.019465   -0.432876
