21

C      -0.368374    1.305207   -0.299485
O       0.328487    0.104227   -0.016035
C       0.805672   -0.580605   -1.125865
C      -0.140029   -1.292707   -2.061178
C       0.766734   -2.082251   -1.137828
C       2.097519   -2.522571   -1.710370
O       2.617871   -1.375940   -2.380533
C       2.175739   -0.199895   -1.699981
C       2.239293    0.955315   -2.688270
H       0.293873    2.090233   -0.687814
H      -1.176667    1.141723   -1.024899
H      -0.799411    1.647933    0.644209
H      -1.190519   -1.272929   -1.793330
H       0.066413   -1.292418   -3.126937
H       0.328406   -2.621465   -0.307003
H       2.768716   -2.848641   -0.899475
H       2.033319   -3.327795   -2.449876
H       2.829720    0.015351   -0.836836
H       1.510426    0.822748   -3.493017
H       2.042159    1.907916   -2.188718
H       3.237092    1.005826   -3.133354
