22

C      -0.213501    1.503607   -0.005047
C      -0.006982    0.012933   -0.061329
C       0.050304   -0.793588    1.211752
C       1.295764   -0.524049    2.062232
C       1.438978    0.795252    2.877846
C       2.085803   -0.030497    4.021361
C       1.457301   -1.304922    3.397017
N       0.142706   -0.648709   -1.146115
O       0.116907    0.183911   -2.280473
H       0.744022    2.031309   -0.087157
H      -0.831510    1.833628   -0.842745
H      -0.679943    1.801042    0.936430
H      -0.844732   -0.585349    1.815402
H       0.025266   -1.854148    0.941126
H       2.188016   -0.670279    1.442520
H       2.017961    1.612323    2.440402
H       0.459760    1.185340    3.176402
H       3.176987   -0.039576    3.945985
H       1.811962    0.221489    5.048427
H       0.481740   -1.529109    3.842191
H       2.050696   -2.222520    3.382178
H       0.186641   -0.455395   -2.996815
