20

C      -0.145679    1.568419    0.060944
C       0.029176    0.048961   -0.034909
C       0.762243   -0.534695    1.170092
C      -0.046854   -0.629860    2.506988
N       0.069361   -2.124687    2.478072
C       0.947329   -2.087236    1.254671
C      -0.019240   -3.053753    0.531406
C      -0.939401   -2.816817    1.752684
O      -2.093950   -2.999540    2.006890
H       0.823908    2.075283    0.116231
H      -0.679293    1.960004   -0.809951
H      -0.717391    1.848561    0.952319
H      -0.956816   -0.421537   -0.136605
H       0.586154   -0.201947   -0.947092
H       1.716600   -0.014034    1.297016
H       0.447600   -0.200541    3.381282
H      -1.084741   -0.284766    2.477324
H       1.975052   -2.432365    1.383410
H      -0.454417   -2.738456   -0.418327
H       0.359674   -4.073633    0.426734
