21

O      -0.041432    1.445410   -0.038540
C       0.012093    0.019714    0.017739
C       0.865617   -0.455806    1.210234
C       0.376238    0.027155    2.587725
C      -0.783848   -0.803384    3.099725
O      -1.914222   -0.126388    3.660083
C      -2.080764   -0.809031    2.410832
C      -2.315240    0.014513    1.160165
C      -1.446605   -0.460388   -0.019794
H       0.861007    1.780035   -0.033568
H       0.496410   -0.363821   -0.895739
H       0.930623   -1.551613    1.189592
H       1.890141   -0.094760    1.043225
H       1.198953   -0.015136    3.309758
H       0.069056    1.073939    2.516690
H      -0.501409   -1.706728    3.644254
H      -2.682173   -1.717052    2.488447
H      -3.373149   -0.045026    0.882479
H      -2.102593    1.065618    1.368210
H      -1.876743   -0.086764   -0.955167
H      -1.456474   -1.555554   -0.084287
