21

C      -0.377354    1.364578   -0.004787
O      -0.217341   -0.031325   -0.076043
C       0.813296   -0.420193   -0.957493
C       0.888756   -1.923816   -0.950104
O       0.110988   -2.636894   -1.918039
C       1.538419   -2.715092   -2.006769
C       2.199017   -2.147249   -3.217674
C       3.670734   -2.414994   -3.439464
C       2.646767   -3.083971   -4.315509
H       0.539126    1.864392    0.348905
H      -0.646486    1.796711   -0.981738
H      -1.184635    1.565057    0.703589
H       0.614969   -0.053933   -1.975991
H       1.779921    0.003530   -0.629644
H       0.847744   -2.347103    0.055052
H       1.942661   -3.686224   -1.706904
H       1.827120   -1.179724   -3.535654
H       4.274707   -1.618186   -3.858229
H       4.189596   -3.025314   -2.707329
H       2.470438   -4.144987   -4.172607
H       2.543285   -2.749808   -5.341437
