22

C       0.080164    1.577533   -0.181365
C       0.037266    0.064140   -0.051506
O       0.668095   -0.503591   -1.179587
C       0.680797   -1.915945   -1.155146
C       1.382888   -2.386029   -2.420672
C       1.475596   -3.883542   -2.538643
N       1.006676   -4.663620   -1.655405
O       2.114969   -4.210914   -3.695715
C       2.296863   -5.589083   -3.979684
H       1.114682    1.928601   -0.235955
H      -0.437855    1.899413   -1.089386
H      -0.402198    2.049246    0.680016
H       0.546053   -0.259419    0.872832
H      -1.005999   -0.288700    0.019566
H       1.206152   -2.290396   -0.263688
H      -0.342247   -2.318975   -1.112051
H       0.862517   -1.994789   -3.302550
H       2.394496   -1.966022   -2.463228
H       1.145332   -5.648097   -1.875324
H       2.821471   -5.635293   -4.934707
H       2.903318   -6.081364   -3.209472
H       1.336193   -6.111124   -4.068867
