22

C       0.017891    1.604016   -0.169355
C       0.070933    0.105005    0.036376
N       1.225681   -0.762692   -0.284747
C       2.522600   -0.072280   -0.426585
C       2.862915    0.649892    0.899546
C       1.840372    0.107698    1.932301
O       1.221355    1.110224    2.733246
C       0.781389   -0.633617    1.120574
C       0.143824   -1.832328    1.782112
H       0.787088    2.155344    0.367860
H       0.085131    1.847871   -1.236287
H      -0.947910    1.975269    0.188440
H      -0.851566   -0.374265   -0.293008
H       3.269047   -0.839826   -0.655082
H       2.497234    0.611776   -1.281266
H       3.892793    0.452790    1.211536
H       2.754391    1.734417    0.821969
H       2.330144   -0.627676    2.588616
H       1.880774    1.451954    3.345076
H      -0.393484   -1.526067    2.686487
H      -0.563514   -2.321624    1.108036
H       0.900451   -2.571091    2.071891
