20

C      -1.767982    0.810145   -0.667212
N      -0.792322   -0.258884   -0.496930
C       0.386854   -0.340768   -1.353160
C       0.700583    0.617626   -2.481244
C      -0.011649    0.243316   -3.778313
O       0.430925    1.142557   -4.782294
C       0.521685    0.059339    0.094515
C       0.886090    1.403612    0.449405
C       1.190734    2.518359    0.785525
H      -1.348146    1.792692   -0.917082
H      -2.471203    0.515922   -1.452528
H      -2.328717    0.914515    0.266597
H       0.658452   -1.373691   -1.576506
H       0.454788    1.648270   -2.216118
H       1.781391    0.596970   -2.666565
H       0.224482   -0.800733   -4.042791
H      -1.102797    0.303127   -3.640058
H      -0.016641    0.921254   -5.604017
H       0.869762   -0.692232    0.800879
H       1.466772    3.501469    1.077016
