19

C       0.637895    1.248804    0.187505
C      -0.381261    0.150513   -0.057126
O      -1.344497    0.000069    0.659331
C      -0.148626   -0.718323   -1.280826
C       1.242296   -1.353812   -1.538367
O       0.654793   -2.659102   -1.689709
C      -0.637538   -2.165614   -1.312089
C      -1.517582   -2.926069   -0.377112
C      -1.889798   -2.767606   -1.847003
H       1.593086    0.810516    0.498959
H       0.832067    1.813534   -0.731063
H       0.279075    1.917471    0.970694
H      -0.494020   -0.141794   -2.148271
H       1.768931   -1.029829   -2.442055
H       1.932890   -1.316214   -0.685672
H      -1.153970   -3.898307   -0.061748
H      -2.076685   -2.368675    0.362914
H      -2.712988   -2.108421   -2.104000
H      -1.778529   -3.633550   -2.490894
