23

C      -0.055946    1.547403    0.053218
C       0.000970    0.046642   -0.039711
C      -0.046580   -0.602927   -1.204372
C       0.002476   -2.099957   -1.338757
C      -0.302423   -2.808638   -0.013461
C       0.477920   -2.181819    1.148317
C       0.218369   -2.924156    2.463595
O       1.858372   -2.316880    0.785634
C       0.102786   -0.691470    1.276650
H       0.850129    1.952388    0.523497
H      -0.161679    2.009114   -0.932257
H      -0.899285    1.877399    0.674826
H      -0.109431   -0.028605   -2.126930
H      -0.706011   -2.429995   -2.108796
H       0.997102   -2.401231   -1.693002
H      -1.372929   -2.735566    0.211364
H      -0.054584   -3.873114   -0.082583
H       0.562536   -3.959280    2.383640
H       0.757775   -2.448512    3.292156
H      -0.845965   -2.928467    2.720324
H       2.386056   -1.884898    1.465370
H       0.846931   -0.197233    1.920873
H      -0.847915   -0.596424    1.822573
