16

C      -0.536136    1.323818    0.117112
C       0.148230   -0.020778    0.057438
O       0.777250   -0.463209    0.994370
C       0.053597   -0.815111   -1.267031
C       0.526495   -2.281477   -1.080365
O       1.881667   -2.357495   -0.717335
C      -1.274711   -0.750075   -1.862362
C      -2.377579   -0.749258   -2.341187
H      -0.274463    1.928462   -0.757726
H      -1.621200    1.184068    0.085427
H      -0.253635    1.840496    1.034686
H       0.774146   -0.328458   -1.943750
H      -0.131948   -2.769493   -0.346883
H       0.412331   -2.807029   -2.032196
H       1.937125   -1.941362    0.153261
H      -3.347290   -0.739768   -2.774538
