22

C       0.179929    1.470177    0.122396
C      -0.075435   -0.033721    0.182794
C      -1.536611   -0.413963   -0.025955
O      -2.392594    0.419868   -0.224314
C      -1.860772   -1.899954    0.024880
C      -3.338875   -2.207019   -0.199519
N      -3.557679   -3.649760   -0.210305
C      -3.862199   -4.265021    1.078967
C      -4.922341   -4.091962    0.048029
H       1.240900    1.688773    0.272205
H      -0.125509    1.878637   -0.844147
H      -0.393914    1.994714    0.890601
H       0.519876   -0.568260   -0.570498
H       0.247251   -0.453661    1.145601
H      -1.252729   -2.423046   -0.724633
H      -1.525860   -2.297280    0.993041
H      -3.945415   -1.694323    0.566527
H      -3.653626   -1.803628   -1.167127
H      -3.417840   -5.239750    1.258888
H      -3.914165   -3.618029    1.954039
H      -5.677658   -3.330701    0.237621
H      -5.265518   -4.938022   -0.540499
