17

C       0.033025    1.497753   -0.003725
C       0.029753   -0.021521    0.035484
O       1.095808   -0.641495    0.038649
C      -1.248979   -0.697768    0.059169
C      -1.367395   -2.094090    0.047165
N      -0.370513   -3.034496    0.129263
N      -2.691387   -2.401001    0.014560
C      -3.451655   -1.229073    0.014401
C      -2.591814   -0.175264    0.043415
H       1.063485    1.854582   -0.016590
H      -0.492234    1.863646   -0.892671
H      -0.485302    1.908076    0.869839
H       0.535448   -2.583210    0.017558
H      -0.492259   -3.868246   -0.428372
H      -3.064594   -3.333288    0.066238
H      -4.527388   -1.277557   -0.010694
H      -2.872567    0.866407    0.043189
