13

O      -0.306556    0.471095    0.774921
C       0.094692    1.041445   -0.203254
C       1.309211    1.965794   -0.198542
N       1.203181    2.945294   -1.257118
C       1.334999    4.153722   -0.954225
O       1.230821    5.104285   -1.929292
C       1.375429    6.415014   -1.568812
O       1.298054    7.295320   -2.362438
H      -0.379486    0.925091   -1.201166
H       1.438112    2.379803    0.812557
H       2.178325    1.323134   -0.406760
H       1.535485    4.550310    0.049839
H       1.565911    6.545496   -0.488608
