21

C      -0.340894    1.423870    0.125360
O      -0.018874    0.056337    0.033713
C       0.749789   -0.520588    1.057213
C       2.097731    0.013212    1.453731
C       0.925731    0.082019    2.422760
C       0.549089   -2.016764    0.951377
C       1.216228   -2.748129   -0.235584
C       1.931019   -3.563867    0.858368
O       1.337313   -2.761106    1.905701
H       0.549178    2.067018    0.183868
H      -0.883135    1.673848   -0.789833
H      -0.987965    1.640750    0.986255
H       2.882510   -0.704162    1.663701
H       2.433825    0.943649    1.009121
H       0.503840    1.058454    2.628655
H       0.929450   -0.598114    3.266987
H      -0.521740   -2.233909    1.063459
H       0.547101   -3.304304   -0.892343
H       1.867940   -2.110756   -0.834495
H       1.624686   -4.614359    0.936631
H       3.025744   -3.511393    0.876253
