14

O       0.104616    1.382381    0.058754
C       0.066050    0.002773    0.031072
C      -0.081992   -0.630272    1.453494
O      -1.503334   -0.279809    1.415630
C      -1.394841   -0.671052    0.016536
C      -1.001512   -2.148666    0.105264
C      -0.102568   -2.117745    1.094500
C      -2.443419   -0.219227   -0.866639
N      -3.236352    0.153805   -1.619901
H       0.215696    1.714407   -0.838045
H       0.796551   -0.447476   -0.650345
H       0.453153   -0.257711    2.323303
H      -1.356971   -2.949794   -0.524189
H       0.501253   -2.905029    1.519610
