18

O      -0.156015    1.303295    0.386477
C       0.051148   -0.009277   -0.058235
C      -0.504725   -0.409138   -1.408714
C      -1.192998   -0.832604   -0.130202
O      -1.135904   -2.189053    0.241568
C      -0.272311   -2.597491    1.230539
N      -0.304400   -3.782945    1.670330
C       0.737318   -1.586776    1.714825
C       1.248628   -0.733379    0.542535
H       0.479715    1.871738   -0.062979
H      -0.998986    0.357532   -1.994833
H       0.015523   -1.174642   -1.974488
H      -2.137424   -0.363023    0.125501
H      -1.058352   -4.304086    1.216897
H       0.262881   -0.922049    2.447816
H       1.528954   -2.134521    2.226992
H       1.747371   -1.367222   -0.197459
H       1.979271    0.002478    0.890166
