17

O       0.028424    1.480150    0.133961
C       1.429832    1.506428   -0.091876
C       2.184892    0.837130    1.044044
C       1.786128    0.868346    2.463487
C       0.727712    0.297882    3.063417
C      -0.321149   -0.530235    2.482177
C      -0.641332   -0.686391    1.188878
C       0.033486    0.007698    0.051247
C       1.562675    0.011581   -0.069354
H       1.840574    2.274766   -0.736589
H       3.257854    0.944779    0.891231
H       2.463176    1.435918    3.099274
H       0.641583    0.445274    4.137628
H      -0.925953   -1.068635    3.209388
H      -1.459885   -1.353334    0.932936
H      -0.422675   -0.282750   -0.901644
H       2.136487   -0.670792   -0.680670
