21

C      -0.229571    1.456038   -0.172992
C      -0.036302   -0.048845   -0.041658
C       1.127112   -0.603220   -0.962112
O       1.587545    0.134053   -2.054559
C       1.978006   -0.554324    0.302488
O       3.123994   -0.215529    0.441121
C       0.757110   -0.555190    1.235632
C       0.869787    0.351537    2.456701
C       0.321088   -1.972138    1.641457
H       0.712355    2.001835   -0.056356
H      -0.618679    1.698251   -1.165593
H      -0.932718    1.834260    0.574999
H      -0.984272   -0.573042   -0.187573
H       0.896765   -1.627032   -1.278933
H       2.425088    0.534923   -1.787522
H       1.197910    1.359280    2.192714
H      -0.092364    0.426813    2.974768
H       1.600115   -0.057127    3.162062
H       1.016811   -2.400335    2.370151
H      -0.672118   -1.936916    2.102383
H       0.267036   -2.653385    0.787270
