16

O       0.063759    1.475473    0.132261
C      -0.072933    0.102661    0.027328
C       1.011018   -0.607160    0.762811
O       1.879275    0.008633    1.339544
C      -1.368797   -0.680888    0.046602
C      -2.465863   -0.092292   -0.856568
C      -2.106850    1.118500   -1.624624
N      -1.606475   -0.201741   -2.085619
C      -0.496269   -0.706937   -1.200354
H       0.878161    1.599865    0.650942
H       0.984500   -1.713721    0.749220
H      -1.573387   -1.456413    0.775394
H      -3.465274   -0.514273   -0.852551
H      -2.875515    1.487963   -2.298083
H      -1.425645    1.858979   -1.235422
H       0.132223   -1.483317   -1.621425
