20

C       0.153428    1.444486    0.141165
N       0.297706    0.005384    0.036786
C       0.393225   -0.641147   -1.160068
O       0.390617   -0.060394   -2.234207
C       0.461342   -2.164849   -1.062419
C      -0.967230   -2.754670   -1.182708
O      -1.031691   -4.111212   -0.809020
C       1.386979   -2.688052   -2.162292
O       1.411148   -4.117672   -2.097421
H       0.981147    1.887627    0.705803
H       0.159319    1.844308   -0.873353
H      -0.789041    1.717720    0.628734
H       0.310449   -0.543190    0.880418
H       0.854777   -2.468705   -0.084516
H      -1.643707   -2.212894   -0.512107
H      -1.327086   -2.585443   -2.211047
H      -0.328106   -4.555021   -1.302286
H       1.011069   -2.336952   -3.130169
H       2.400119   -2.282658   -2.029724
H       1.825507   -4.450629   -2.898364
