12

O      -0.004653   -0.062511   -0.000149
C       0.020479    1.128951    0.008893
N       1.204742    1.903639    0.001829
C       1.299235    3.275992    0.011615
N       2.546944    3.648586    0.000741
C       3.219730    2.445144   -0.016313
C       4.695090    2.297952   -0.033899
O       5.462799    3.224467   -0.034931
N       2.449476    1.371090   -0.016270
H      -0.866627    1.786094    0.024096
H       0.430862    3.918752    0.026371
H       5.023878    1.239587   -0.045824
