21

C      -0.011403    1.519754   -0.020439
C       0.003634    0.007124    0.012017
C      -1.370139   -0.743781   -0.016518
C      -0.982584   -1.507859    1.291401
C       0.393785   -0.781254    1.303471
C       1.590560   -1.396411    0.539696
O       2.855063   -1.525688    1.092272
C       1.175421   -2.153348   -0.686961
C       1.204062   -0.638846   -0.725898
H       0.974891    1.928823    0.226607
H      -0.283903    1.890507   -1.016766
H      -0.733807    1.926465    0.695822
H      -2.222916   -0.071704    0.111465
H      -1.558552   -1.361168   -0.898430
H      -1.612807   -1.246346    2.144767
H      -0.946621   -2.598601    1.221263
H       0.691970   -0.246865    2.206749
H       2.945733   -2.422328    1.433662
H       2.010571   -2.610397   -1.209773
H       0.250286   -2.718342   -0.752426
H       1.830364   -0.117404   -1.441635
