18

C       0.054481    1.442791    0.152240
C       0.031020   -0.065597   -0.117999
C      -1.372551   -0.642626   -0.070607
C      -1.610206   -2.164093   -0.131872
C      -2.733287   -1.898603    0.945874
C      -1.655979   -1.852054    2.002468
N      -2.101148   -0.616790    1.269764
C      -0.797290   -2.670302    1.081621
O       0.013272   -3.537449    1.241550
H       1.077061    1.829980    0.128526
H      -0.527507    1.988502   -0.598494
H      -0.372857    1.669522    1.133328
H       0.453003   -0.279606   -1.108889
H       0.671122   -0.585788    0.604596
H      -2.031694   -0.108825   -0.763289
H      -1.658293   -2.744406   -1.049412
H      -3.780791   -2.148501    1.035776
H      -1.739070   -1.852502    3.080173
