14

O       0.034113    0.024613   -0.118595
C       0.009536    1.203439   -0.065044
C      -1.079159    2.364343    0.074215
C      -0.017988    2.985101    1.042685
C       1.029937    2.413463    0.037855
C       0.601803    3.114719   -1.247036
C      -0.753105    3.073462   -1.215016
C       1.463855    3.563738   -2.269966
N       2.193852    3.939344   -3.088214
H      -2.114753    2.185964    0.348854
H      -0.040800    4.073858    1.128470
H       0.010401    2.502251    2.023350
H       2.087327    2.300643    0.258454
H      -1.450318    3.365352   -1.986351
