20

C       0.356873    1.446608    0.192678
C      -0.044317    0.012338   -0.103969
O       0.828475   -0.501567   -1.094199
C       0.539380   -1.826505   -1.462328
C       1.430830   -2.209586   -2.625966
C       2.872989   -2.594397   -2.337999
C       1.896744   -3.654105   -2.746462
C       1.168058   -1.497577   -3.852404
N       0.950596   -0.939008   -4.841718
H       1.386190    1.489704    0.559561
H       0.289196    2.056638   -0.712125
H      -0.301895    1.875627    0.953410
H       0.013496   -0.604924    0.808746
H      -1.086732   -0.034858   -0.460036
H       0.724211   -2.520718   -0.624603
H      -0.519846   -1.931833   -1.748516
H       3.624246   -2.283778   -3.053419
H       3.181582   -2.538455   -1.300484
H       1.531301   -4.345521   -1.995287
H       1.971764   -4.067815   -3.744548
