23

C      -0.540967    1.372233    0.197832
C      -0.332990   -0.145165    0.246804
C       0.855577   -0.547641    1.121050
C       0.619635   -0.430388    2.656230
C       0.599133   -1.983966    2.797213
C      -0.769566   -2.563756    3.031112
O      -0.999716   -3.517743    3.731118
C       1.122141   -2.079385    1.311316
C       0.517488   -3.105045    0.359419
H       0.340840    1.876570   -0.212651
H      -1.398505    1.634998   -0.428956
H      -0.721647    1.785288    1.196069
H      -1.251366   -0.624887    0.610367
H      -0.176624   -0.523273   -0.771258
H       1.738297   -0.003602    0.767528
H       1.448120    0.024693    3.202498
H      -0.302711    0.078661    2.954597
H       1.271242   -2.417485    3.540416
H      -1.600980   -2.039209    2.501974
H       2.202478   -2.247943    1.359904
H      -0.561177   -2.977280    0.231128
H       0.978453   -3.034575   -0.631709
H       0.686977   -4.120927    0.731865
