18

C       0.230691   -1.233923   -0.081124
C       0.143236   -0.034087   -0.050000
C       0.007298    1.399089   -0.033471
C      -1.112877    1.952578   -0.906850
C      -2.498125    1.438328   -0.462354
C      -3.580077    1.962555   -1.290870
N      -4.423466    2.390218   -1.955255
C       0.328819    2.125042    1.268202
C       1.275933    2.226389    0.108808
H       0.320132   -2.291851   -0.104563
H      -1.098947    3.046113   -0.861331
H      -0.942475    1.672163   -1.951272
H      -2.515805    0.343898   -0.503828
H      -2.687146    1.717942    0.580349
H      -0.280077    2.989361    1.512108
H       0.619736    1.521148    2.118930
H       2.214315    1.688354    0.164447
H       1.318897    3.158620   -0.443947
