18

O      -0.284355    1.459806   -0.175889
C      -0.101290    0.098311   -0.020822
C      -0.314578   -0.885330   -1.131961
C      -1.174938   -0.973768    0.113582
C      -0.372164   -1.666282    1.226344
C       0.711095   -0.535202    1.118117
N      -1.042766   -1.741811    2.504391
C      -1.149399   -2.886287    3.234457
O      -0.695171   -3.966297    2.923269
H       0.364120    1.785532   -0.809660
H      -0.830734   -0.478648   -1.996099
H       0.415751   -1.659961   -1.358341
H      -2.254918   -0.901606    0.068484
H      -0.030033   -2.677126    0.999389
H       1.740594   -0.838152    0.900030
H       0.703201    0.092298    2.012982
H      -1.470263   -0.905183    2.871758
H      -1.713311   -2.716201    4.173564
