18

C       1.179375    1.706455   -0.383783
C       0.103982    0.817298    0.186984
N       0.299712   -0.622410    0.090697
C       0.284311   -0.013065    1.435745
C       1.569643   -0.021431    2.202720
O       2.659703   -0.096943    1.690263
C       1.439794    0.053026    3.740460
C       0.483749    1.040507    4.218971
C      -0.304552    1.865682    4.596683
H       2.165735    1.279726   -0.200417
H       1.038386    1.810509   -1.464932
H       1.130993    2.705615    0.061577
H      -0.912930    1.190023    0.061659
H      -0.582232   -1.103167   -0.067018
H      -0.606087   -0.136169    2.046433
H       1.141808   -0.948301    4.085080
H       2.441889    0.241480    4.136158
H      -0.995060    2.596041    4.939279
