20

C       0.001733    1.505085   -0.017633
C       0.026497   -0.026144    0.036636
O      -1.288651   -0.574774    0.046265
C      -1.947572   -0.521630    1.297818
C      -3.213974   -1.237301    1.213281
C      -4.262904   -1.819821    1.168104
C       0.743720   -0.611862   -1.168676
C       0.505746   -2.006889   -1.601788
N       0.005523   -0.876554   -2.411483
H       1.023112    1.897838   -0.037651
H      -0.515708    1.843436   -0.919967
H      -0.500097    1.934909    0.854123
H       0.557032   -0.347569    0.949417
H      -1.316256   -0.974753    2.080459
H      -2.137124    0.518590    1.604735
H      -5.189760   -2.336409    1.123449
H       1.730125   -0.179061   -1.326603
H       1.310370   -2.577797   -2.056597
H      -0.219826   -2.586957   -1.040695
H      -0.988054   -0.769481   -2.214714
