19

O       0.038974    1.370982   -0.199939
C       0.023299   -0.054549   -0.043076
C       0.773329   -0.530384    1.176523
C       0.141110   -1.318664    2.048740
C      -1.301177   -1.679213    1.772636
C      -2.056694   -0.366812    1.392668
C      -1.431286   -0.567533   -0.022481
O      -2.127560   -0.125728   -1.150200
C      -1.438914   -2.085560    0.268314
H      -0.208446    1.755699    0.649180
H       0.497696   -0.423238   -0.962094
H       1.805900   -0.217190    1.296457
H       0.632009   -1.700384    2.938939
H      -1.737822   -2.331807    2.527693
H      -3.138349   -0.512638    1.342105
H      -1.824986    0.536208    1.965273
H      -1.796705    0.764295   -1.334800
H      -0.649440   -2.702543   -0.168122
H      -2.419983   -2.512801    0.044644
