24

C      -0.023100    1.598442    0.216599
C      -0.054399    0.073316    0.028155
C       0.725131   -0.603948    1.163613
C      -1.509805   -0.434115   -0.116008
C      -2.129962   -0.011936   -1.460011
O      -1.437787   -0.580416   -2.555219
N      -1.571702   -1.904034   -0.099032
C      -1.737433   -2.579010    1.182061
C      -2.870137   -2.497327    0.224659
H       1.010380    1.951606    0.288579
H      -0.492729    2.135065   -0.611932
H      -0.535850    1.892017    1.141038
H       0.448094   -0.165821   -0.916288
H       0.802102   -1.683382    1.018853
H       1.742058   -0.200394    1.210654
H       0.258257   -0.421373    2.139471
H      -2.122855   -0.007615    0.701755
H      -3.192791   -0.304255   -1.467180
H      -2.094000    1.073446   -1.585141
H      -1.281943   -1.502028   -2.309241
H      -1.181885   -3.503985    1.308820
H      -1.801233   -1.961819    2.075864
H      -3.687464   -1.824939    0.479846
H      -3.160270   -3.360414   -0.367187
