16

C      -0.039269    1.585932    0.021361
C       0.029288    0.063434    0.031016
O       0.887165   -0.384697   -1.033531
C       1.441051   -1.590887   -0.593286
O       1.600779   -1.472458    0.825571
C       0.758448   -0.496589    1.260898
N       0.605294   -0.098102    2.443429
C      -1.300395   -0.552362   -0.083095
C      -2.381565   -1.064508   -0.192614
H       0.972828    1.996025    0.037394
H      -0.558997    1.933195   -0.873893
H      -0.575609    1.923788    0.909798
H       0.783309   -2.447800   -0.799253
H       2.421738   -1.727699   -1.054095
H       1.195466   -0.621192    3.091456
H      -3.341076   -1.512080   -0.281506
