16

C      -0.038843    1.519970    0.023994
C       0.089199    0.029558    0.027837
N      -0.785125   -0.856235    0.792959
C       0.702290   -0.895816    1.050008
C       1.254722   -1.768608   -0.044152
O       2.020646   -2.679731   -0.096256
C       0.614273   -0.833920   -1.150714
C      -0.313138   -1.361536   -2.122703
C      -1.080036   -1.802727   -2.936368
H       0.871901    1.993091   -0.356573
H      -0.872511    1.833572   -0.613706
H      -0.224389    1.900647    1.033926
H      -1.180367   -0.314870    1.563671
H       1.095981   -0.705304    2.040445
H       1.458174   -0.331100   -1.641435
H      -1.762024   -2.201882   -3.645517
