18

C       0.021295    1.485137   -0.012901
N       1.243789    0.641774    0.054592
C      -0.067039    0.018718    0.021149
C      -0.562178   -0.921376    1.115971
C      -2.037267   -1.029671    0.688740
O      -1.970125   -1.014339   -0.759890
C      -0.593557   -0.898565   -1.068477
O       0.074334   -2.120051   -0.803377
C       0.143821   -2.208063    0.643680
H      -0.173947    2.072207    0.880407
H      -0.210890    1.992029   -0.946479
H       1.688979    0.589861   -0.859476
H      -0.381621   -0.635636    2.150648
H      -2.514401   -1.958700    1.020478
H      -2.637235   -0.178713    1.032960
H      -0.474836   -0.637783   -2.119542
H       1.193873   -2.238666    0.954499
H      -0.360954   -3.121941    0.975719
