17

C       0.203548    1.521610    0.025811
C      -0.090738    0.013130   -0.037740
O      -1.476627   -0.234954   -0.046036
C       0.614337   -0.660652   -1.233533
N       1.910916   -1.046171   -0.671350
C       1.912399   -1.231334    0.694743
N       2.776084   -1.723779    1.490744
C       0.575122   -0.684600    1.156023
O       0.053255   -0.813436    2.231435
H       1.276204    1.727291   -0.044050
H      -0.308528    2.017589   -0.803443
H      -0.170467    1.936264    0.966215
H      -1.734863   -0.341887    0.881157
H       0.019632   -1.522949   -1.559622
H       0.747826    0.016160   -2.082222
H       2.611486   -1.482941   -1.249006
H       3.603154   -2.060562    0.991846
