16

C       0.036525    1.490025    0.021059
C      -0.015104   -0.011045   -0.006642
C      -1.193324   -0.691296   -0.135925
C      -1.215664   -2.130725   -0.151078
O      -2.168261   -2.881492   -0.249195
N       0.090351   -2.678747   -0.022951
C       1.216990   -1.927648    0.095013
N       2.404326   -2.594944    0.264991
N       1.209974   -0.621994    0.099611
H       0.672811    1.857878   -0.790813
H      -0.956511    1.932935   -0.075248
H       0.491280    1.831132    0.957158
H      -2.142530   -0.180284   -0.224784
H       0.121797   -3.688502    0.021165
H       2.500415   -3.506471   -0.154883
H       3.210016   -1.996197    0.162736
