19

O      -0.005630    1.559066   -0.069325
C       0.092425    0.209963    0.323090
C      -1.257640   -0.498753    0.270885
C      -1.251711   -2.003016    0.469510
C      -0.664381   -2.764742   -0.735819
C      -0.884060   -4.254841   -0.609894
O      -0.016897   -5.087802   -0.654042
C      -2.470332    0.283645    0.539961
O      -2.086063   -0.035257   -0.811683
H      -0.544291    1.557931   -0.872132
H       0.813364   -0.338915   -0.304165
H       0.476170    0.192872    1.349656
H      -0.686233   -2.244622    1.378110
H      -2.280624   -2.340364    0.637814
H      -1.189335   -2.423463   -1.638892
H       0.405269   -2.583587   -0.866010
H      -1.951567   -4.546685   -0.463098
H      -3.368411   -0.220732    0.891575
H      -2.377834    1.334070    0.802727
