21

C      -0.359214    1.422173   -0.064370
C       0.123520   -0.016911   -0.166791
C       1.517533   -0.262670   -0.782019
O       1.970108   -0.935452    0.412417
C       0.729818   -0.695142    1.088127
C       0.776118   -0.042961    2.481905
O      -0.022256   -1.101707    3.045233
C       0.075843   -1.886096    1.830238
C      -1.261459   -2.436250    1.383764
H       0.405308    2.072012    0.374830
H      -0.601469    1.818673   -1.056141
H      -1.260988    1.499019    0.552179
H      -0.649036   -0.638896   -0.627064
H       1.560163   -0.915802   -1.661087
H       2.100168    0.645816   -0.983152
H       1.794226   -0.016225    2.892896
H       0.304921    0.938695    2.606237
H       0.810904   -2.696093    1.948518
H      -1.985621   -1.631962    1.221488
H      -1.154233   -3.009397    0.456518
H      -1.664544   -3.105555    2.150084
