15

O      -0.182603    1.444264    0.131492
C      -0.039319    0.056011   -0.006691
C      -1.354608   -0.702950    0.000841
C      -2.173371   -0.339367   -1.169645
N      -1.101834   -1.332751   -1.366945
C       0.194808   -0.547184   -1.442918
C       0.354541    0.384131   -2.538779
C       0.504168    1.193671   -3.416434
H       0.588140    1.867379   -0.263544
H       0.690021   -0.349920    0.706076
H      -1.733028   -1.288168    0.831153
H      -3.161050   -0.783489   -1.238677
H      -2.075648    0.646584   -1.613226
H       1.016386   -1.268510   -1.437114
H       0.632235    1.888424   -4.209760
