22

C       0.023943    1.490038   -0.278508
N      -0.072754    0.044048   -0.262001
C      -1.076336   -0.621025    0.381630
O      -1.969877   -0.046820    0.983431
C      -0.999102   -2.142386    0.316340
C      -0.788233   -2.771185    1.711192
C      -1.242995   -4.223331    1.516916
C      -2.497120   -4.106226    0.622211
C      -2.325723   -2.781378   -0.176259
H      -0.020788    1.882873   -1.300635
H      -0.823775    1.875486    0.289177
H       0.953849    1.835042    0.187836
H       0.629961   -0.494168   -0.739854
H      -0.174246   -2.452513   -0.338064
H       0.241575   -2.678611    2.069510
H      -1.440629   -2.254073    2.423634
H      -0.458512   -4.789049    0.999022
H      -1.440031   -4.738853    2.461333
H      -2.614468   -4.973936   -0.032721
H      -3.398398   -4.055319    1.240780
H      -3.144534   -2.091113    0.038844
H      -2.309452   -2.944781   -1.257334
