21

C      -0.223545    1.508649    0.040705
C      -0.057406    0.004136   -0.116428
C       1.150316   -0.542918   -0.965792
C       1.643399   -1.290719    0.285168
C       2.463869   -2.537867    0.357113
O       1.860450   -0.278118    1.286292
C       0.513873   -0.772674    1.086222
C      -0.186167   -1.259753    2.314173
O      -0.506248   -0.185804    3.189000
H       0.710618    1.956758    0.391348
H      -0.492775    1.979506   -0.910653
H      -1.006769    1.738527    0.770019
H      -0.992403   -0.457439   -0.452182
H       0.837109   -1.204232   -1.777743
H       1.849056    0.204078   -1.351934
H       3.485190   -2.345834    0.008719
H       2.521175   -2.908315    1.383917
H       2.035386   -3.320515   -0.277174
H      -1.139499   -1.727650    2.046599
H       0.434220   -2.017795    2.815927
H       0.322017    0.270070    3.377418
