17

O      -0.017911    1.394000    0.030926
C      -0.053493    0.006943    0.064215
C      -0.374536   -0.801907    1.266615
C      -1.433330   -0.097106    2.120786
C      -2.403791   -0.075661    0.908267
O      -2.786145    1.243070    0.524094
C      -1.360980   -0.769593    0.030159
C      -1.668864   -1.787869   -0.973375
O      -2.791933   -2.037066   -1.353978
H      -0.927288    1.717190    0.127865
H       0.720298   -0.423994   -0.568546
H       0.229662   -1.645734    1.577787
H      -1.807653   -0.697603    2.950009
H      -1.139974    0.889743    2.487370
H      -3.285535   -0.706030    1.054970
H      -3.341258    1.172973   -0.261104
H      -0.786629   -2.331373   -1.382741
