16

C      -0.040379    1.568639    0.033335
C      -0.021755    0.040224   -0.007451
C       0.740295   -0.514027   -1.219778
N       2.180056   -0.209479   -1.180026
C       2.779830   -1.332729   -1.257763
N       1.963135   -2.454155   -1.359254
C       0.632154   -2.044398   -1.324487
O      -0.342366   -2.753825   -1.359114
H       0.976980    1.967948    0.050014
H      -0.548574    1.980401   -0.845687
H      -0.567195    1.927522    0.922527
H       0.440522   -0.355500    0.904793
H      -1.038855   -0.364847   -0.048635
H       0.316017   -0.077026   -2.134160
H       3.858478   -1.454586   -1.250123
H       2.259159   -3.416034   -1.398935
