17

C       0.025789    1.526086   -0.071049
C      -0.035627    0.027077   -0.064302
N       0.465797   -0.773408   -1.218196
C      -0.282720   -1.908790   -0.564235
C       0.652390   -2.167748    0.629725
C       0.343547   -0.794792    1.250367
O      -1.075039   -0.936702    1.570939
C      -1.269696   -0.868588    0.155768
H       1.064443    1.872156   -0.101875
H      -0.494878    1.943363   -0.940066
H      -0.445154    1.927421    0.831572
H      -0.062757   -0.467518   -2.036936
H      -0.609988   -2.735171   -1.191966
H       0.341175   -2.971821    1.298791
H       1.682590   -2.303975    0.297849
H       0.942744   -0.394807    2.066955
H      -2.293675   -0.711121   -0.184972
