18

C      -0.238894    1.532192    0.044321
C       0.079903    0.058989   -0.022289
C      -0.658989   -0.922616    0.863111
C       0.828191   -0.684618    1.073832
O       1.730577   -1.609522    0.531760
C       1.396382   -1.792769   -0.849384
C       0.671786   -0.511541   -1.306850
C       1.302987   -0.045445    2.269652
N       1.649760    0.496064    3.230899
H       0.613226    2.133488   -0.289807
H      -1.094179    1.773007   -0.596519
H      -0.487039    1.840480    1.063823
H      -1.332116   -0.504776    1.603461
H      -0.953992   -1.894175    0.481574
H       2.325646   -1.986709   -1.389957
H       0.749832   -2.673129   -0.959255
H      -0.081092   -0.723344   -2.072105
H       1.378390    0.214362   -1.722840
