16

O       0.255374    1.023704    0.825432
C      -0.016149    0.127872   -0.240471
C      -1.387810   -0.477895   -0.161384
C      -2.178371   -0.526188    0.950623
N      -3.364151   -1.173660    0.613997
C      -4.424906   -1.410381    1.480088
O      -5.442425   -1.970433    1.167624
C      -3.315500   -1.536229   -0.725506
C      -2.118076   -1.119800   -1.225362
H      -0.396399    1.731301    0.775984
H       0.121841    0.610155   -1.221582
H       0.753502   -0.650293   -0.167830
H      -2.005948   -0.171694    1.953421
H      -4.217126   -1.020410    2.492789
H      -4.153202   -2.047156   -1.168523
H      -1.779926   -1.248596   -2.243110
