15

O       0.100170    1.304798    0.321347
C       0.051823   -0.009860   -0.215462
C      -1.336560   -0.600914   -0.128467
C      -1.667613   -2.084940   -0.131451
C      -0.675218   -2.858552    0.732666
O      -0.851499   -1.932390    1.839698
C      -1.878414   -1.247895    1.112023
H      -0.111688    1.234576    1.258141
H       0.354458    0.085523   -1.263466
H       0.777526   -0.665947    0.281431
H      -2.092904   -0.019478   -0.652671
H      -2.382419   -2.525364   -0.813076
H      -1.040142   -3.853459    1.011255
H       0.367670   -2.928904    0.403959
H      -2.766401   -0.946102    1.655999
