21

C      -0.135579    1.532710   -0.085477
C      -0.010454    0.022900    0.024278
O       0.691945   -0.519648   -1.106688
C       1.521756   -1.576140   -0.619378
C       2.978115   -1.113680   -0.534324
C       3.055763    0.168702    0.316642
C       2.114296    0.111684    1.540957
C       0.777843   -0.568956    1.207411
O       1.053454   -1.875689    0.681745
H       0.836509    2.030464   -0.088258
H      -0.654781    1.796812   -1.010932
H      -0.723451    1.921949    0.752628
H      -1.019738   -0.415298    0.047325
H       1.388629   -2.464461   -1.245263
H       3.555999   -1.929180   -0.084614
H       3.380557   -0.936545   -1.537015
H       4.084457    0.348198    0.644960
H       2.781143    1.016121   -0.317395
H       2.575265   -0.478828    2.340820
H       1.947466    1.116480    1.945476
H       0.158278   -0.692163    2.099068
