25

C       0.246722    1.344716   -0.112576
C       0.021819   -0.171046   -0.117590
C      -1.448887   -0.599503    0.075325
C      -2.291662   -0.323132   -1.187070
C      -3.808272   -0.344044   -0.967731
C      -1.542722   -2.083488    0.491165
C      -1.094464   -2.363363    1.906194
C      -0.513180   -3.650340    2.308347
O       0.310722   -2.493493    2.156188
H       1.306750    1.581353   -0.248457
H      -0.304922    1.852917   -0.910195
H      -0.069759    1.785166    0.839805
H       0.387962   -0.596157   -1.062949
H       0.632171   -0.623152    0.669332
H      -1.870538    0.002644    0.896028
H      -2.015934    0.656208   -1.593704
H      -2.018845   -1.055559   -1.959716
H      -4.341571   -0.126492   -1.898595
H      -4.164042   -1.315794   -0.610273
H      -4.109081    0.408696   -0.230279
H      -2.581364   -2.427272    0.406664
H      -0.949681   -2.698047   -0.198265
H      -1.617197   -1.791107    2.676295
H      -0.632740   -4.008507    3.330044
H      -0.368198   -4.428596    1.559692
