17

C       0.373531    0.794001    0.378811
O      -0.470035    0.402491   -0.702802
C      -1.479046   -0.441060   -0.365320
C      -1.484538   -1.754914    0.064857
N      -0.431759   -2.678090    0.329563
C      -2.856748   -2.136404    0.173672
O      -3.261905   -3.371684    0.564248
C      -3.642244   -1.070743   -0.184998
N      -2.773332   -0.031906   -0.503296
H       1.103819    1.493824   -0.033066
H      -0.202699    1.287565    1.170879
H       0.901890   -0.066840    0.805416
H       0.068807   -2.474825    1.189112
H       0.248885   -2.710970   -0.421623
H      -2.444195   -3.883415    0.656860
H      -4.709969   -0.957707   -0.248442
H      -3.036577    0.868679   -0.861268
