17

O      -0.443595    1.374811   -0.575157
C      -0.121320    0.082244   -0.125745
C      -1.368648   -0.756490    0.120381
O      -2.031192   -0.837517   -1.158057
C      -3.353296   -0.715040   -1.205502
N      -4.129743   -0.975691   -0.238720
N      -3.748073   -0.298269   -2.500483
C      -3.082976    0.572635   -3.335487
O      -2.035253    1.135328   -3.122677
H      -0.895971    1.286724   -1.428774
H       0.537023   -0.449648   -0.831424
H       0.424056    0.186384    0.819404
H      -1.129855   -1.769386    0.461862
H      -2.040686   -0.283143    0.838822
H      -5.098888   -0.758812   -0.456335
H      -4.680807   -0.560283   -2.780990
H      -3.651341    0.718871   -4.273251
