19

C       0.144622    1.601414   -0.048606
C      -0.049324    0.118785   -0.080557
C       0.414147   -0.813772   -1.236137
C      -0.583502   -1.818544   -0.663042
C      -0.537484   -1.569265    0.853874
O       0.450580   -0.577760    1.109673
C      -1.404450   -0.708629   -0.005591
C      -2.847275   -0.338366    0.002416
O      -3.172343    0.569951    1.048112
H       1.208783    1.839059    0.056552
H      -0.219913    2.055614   -0.974863
H      -0.399425    2.042020    0.790578
H       0.091351   -0.439518   -2.211271
H       1.478048   -1.070841   -1.253482
H      -0.943520   -2.745556   -1.091647
H      -0.755513   -2.311165    1.611883
H      -3.126217    0.175017   -0.925089
H      -3.457095   -1.256015    0.054751
H      -2.847254    0.186392    1.869724
