18

O      -0.022058    1.336323   -0.181958
C       0.039727   -0.055197    0.074218
C      -1.346456   -0.627717    0.196579
C      -2.313525   -0.393693    1.371246
C      -3.115662   -1.544709    0.720988
C      -3.427267   -1.067055   -0.713364
C      -2.318639   -1.829283   -1.335324
C      -1.783545   -2.125006    0.087024
N      -2.154856   -0.363155   -1.081240
H      -0.649026    1.436849   -0.910450
H       0.586303   -0.590280   -0.720778
H       0.599437   -0.187243    1.006337
H      -1.858808   -0.699394    2.319052
H      -2.781907    0.588278    1.473487
H      -3.847167   -2.150760    1.251245
H      -4.351991   -0.692781   -1.134083
H      -2.195717   -2.282341   -2.311358
H      -1.243779   -2.989298    0.464383
