17

O      -0.172570   -0.043044   -0.020931
C      -0.060248    1.169922   -0.018037
C       1.191714    1.892401    0.010941
C       1.168454    3.250678   -0.016610
N       2.280043    4.027094   -0.020206
C       3.600064    3.434661    0.161341
C       3.640608    2.047424   -0.492093
C       2.507244    1.151862    0.034127
H      -0.965618    1.824198   -0.038231
H       0.223513    3.786353   -0.061349
H       2.180194    5.021511    0.085031
H       4.344150    4.099303   -0.288534
H       3.839053    3.349489    1.232378
H       3.539226    2.169261   -1.576500
H       4.618113    1.592723   -0.306003
H       2.736684    0.810535    1.052613
H       2.418010    0.242244   -0.567745
