16

C       0.211993    1.414164    0.155092
C       0.003716   -0.052301   -0.019728
N      -0.473678   -0.644268   -1.093782
C      -0.472564   -1.990916   -0.813816
C       0.004578   -2.222839    0.447473
C       0.160732   -3.483750    1.243548
C       1.421228   -3.530975    1.991437
N       2.403682   -3.521843    2.599610
N       0.299734   -0.970700    0.950818
H       1.263019    1.656388    0.349643
H      -0.094283    1.919134   -0.761563
H      -0.379631    1.814545    0.986267
H      -0.817734   -2.718690   -1.533291
H      -0.657510   -3.615114    1.965676
H       0.115001   -4.342043    0.565935
H       0.734804   -0.783811    1.840343
