21

C       0.953676    0.849392    0.770298
C      -0.047049   -0.138382    0.157070
C       0.369969   -0.581403   -1.223878
O       1.392686   -1.596332   -1.307539
C       0.067726   -1.904636   -1.792327
C      -0.747895   -3.001703   -1.094682
O      -1.582403   -3.653580   -2.042312
C       0.134481   -4.016308   -0.346419
O       0.856776   -3.438721    0.718908
H       1.945353    0.394700    0.856438
H       1.051277    1.750825    0.155563
H       0.635633    1.158186    1.769933
H      -0.147543   -1.016723    0.801974
H      -1.037808    0.329213    0.084569
H       0.532353    0.231820   -1.934523
H       0.019280   -1.981492   -2.880084
H      -1.437083   -2.553062   -0.372915
H      -1.019195   -4.179356   -2.622376
H      -0.517378   -4.786537    0.077048
H       0.803249   -4.512368   -1.073061
H       1.440146   -2.782794    0.311689
