20

O       0.042194    1.248407   -0.587765
C       0.015250    0.037304    0.152035
C      -1.385948   -0.513167    0.245449
C      -2.415864    0.178592    1.132896
C      -3.588101   -0.820921    1.225547
C      -2.959156   -2.221100    1.001550
O      -3.816395   -3.135270    0.333063
C      -1.723163   -1.960778    0.161334
N      -1.872742   -1.096513   -1.019473
H      -0.317327    1.032381   -1.456468
H       0.675468   -0.719772   -0.295845
H       0.403017    0.278693    1.147876
H      -1.971451    0.350684    2.120559
H      -2.713514    1.158055    0.745343
H      -4.124801   -0.752902    2.175655
H      -4.325404   -0.647317    0.434702
H      -2.629612   -2.644163    1.964652
H      -4.568858   -3.313636    0.906006
H      -0.977303   -2.745256    0.075309
H      -2.852663   -0.887722   -1.192994
