15

C      -0.032074    1.466036    0.079959
C       1.295255    0.753226    0.033309
C       2.045059    0.445596    1.350749
C       1.071814   -0.471851    2.029479
C      -0.021407   -0.753250    1.265756
N      -0.825393   -1.566768    2.009294
N      -0.339232   -1.814389    3.126262
O       1.005310   -1.044675    3.198058
C      -0.017759   -0.045115   -0.032140
H      -0.369894    1.899942    1.015860
H      -0.311290    2.031362   -0.803083
H       1.895240    0.871978   -0.860401
H       3.004627   -0.050676    1.166072
H       2.254926    1.344674    1.939881
H      -0.348371   -0.528171   -0.942989
