21

C      -0.005977    1.445747    0.041418
C      -0.000596   -0.062053   -0.013437
C       0.966528   -0.761735   -0.968711
O       0.355063   -2.005590   -1.309570
C      -0.678108   -2.245287   -0.353563
C      -1.554664   -3.371513   -0.839491
C      -0.072694   -2.318424    1.093705
C      -0.391393   -0.831451    1.243081
C      -1.273812   -0.853495   -0.000075
H       0.956457    1.834484    0.394184
H      -0.197130    1.878410   -0.947198
H      -0.778589    1.814082    0.723481
H       1.111720   -0.179616   -1.887655
H       1.954755   -0.928326   -0.515105
H      -0.970050   -4.290756   -0.944984
H      -2.370283   -3.558496   -0.135615
H      -1.983287   -3.126147   -1.816139
H      -0.691006   -2.929566    1.757812
H       0.969314   -2.648480    1.164156
H      -0.563655   -0.305051    2.175396
H      -2.269015   -0.471187   -0.188304
