16

C       0.060286    1.379534   -0.311422
C      -0.016338   -0.044731    0.199824
O       0.920472   -0.604152    0.717308
C      -1.374775   -0.761865    0.080713
C      -1.945130   -0.894457   -1.355675
O      -1.605155   -2.216605   -1.761741
C      -1.234158   -2.962278   -0.671040
O      -0.933906   -4.117159   -0.735221
N      -1.297185   -2.153473    0.456620
H       0.237681    1.370234   -1.393344
H      -0.871955    1.926148   -0.138598
H       0.895055    1.894531    0.165612
H      -2.080198   -0.202704    0.710553
H      -3.034428   -0.783042   -1.356770
H      -1.516347   -0.185487   -2.067000
H      -0.643692   -2.399263    1.187631
