19

O      -0.630004    1.324232    0.707900
C      -0.090421    0.129877    0.153315
C       0.669881   -0.710624    1.182679
O      -0.313524   -1.416659    1.924472
C      -1.536042   -1.506090    1.174704
C      -2.671658   -0.867112    1.991922
C      -2.831409   -1.494213    3.358943
O      -3.876300   -1.900759    3.803187
C      -1.266282   -0.795364   -0.169414
H       0.094964    1.851509    1.058539
H       0.525908    0.351443   -0.728575
H       1.354645   -1.408167    0.673943
H       1.261021   -0.100990    1.876302
H      -1.758734   -2.568835    1.014542
H      -2.423745    0.193865    2.122160
H      -3.624997   -0.944912    1.460368
H      -1.892405   -1.554212    3.949136
H      -2.125912   -0.233034   -0.537829
H      -0.969760   -1.517470   -0.935134
