21

C       0.446008    1.245681    0.293708
O      -0.262335    0.156417   -0.266555
C       0.454432   -0.496717   -1.267995
C       1.349666   -1.663903   -0.910935
C       1.578591   -2.078245    0.527146
C       0.009585   -1.892997   -1.607891
C      -1.144765   -2.512126   -0.894724
C      -2.288855   -3.068985   -1.627561
O      -1.303402   -3.930530   -1.057391
H       1.384131    0.924157    0.766195
H       0.682794    2.002668   -0.469089
H      -0.201788    1.695743    1.049478
H       0.759295    0.158411   -2.086339
H       2.214114   -1.795862   -1.556751
H       0.766952   -1.744559    1.177501
H       1.656390   -3.166580    0.616317
H       2.508741   -1.644634    0.909808
H       0.063386   -2.169384   -2.657136
H      -1.325503   -2.158472    0.117039
H      -3.271646   -3.101163   -1.158385
H      -2.299500   -3.026419   -2.716554
