15

C       0.017099    1.508186    0.033740
C      -0.023436    0.006631   -0.013826
C       0.081822   -0.702374   -1.207769
C       0.032622   -2.098074   -1.143042
N      -0.111265   -2.743373    0.027748
C      -0.201982   -1.965457    1.104204
N      -0.167135   -0.634725    1.156147
C       0.135111   -2.883990   -2.332713
C       0.224001   -3.518345   -3.350967
H       0.135597    1.943957   -0.960644
H      -0.903206    1.893517    0.483683
H       0.844269    1.840593    0.668705
H       0.198137   -0.198094   -2.159174
H      -0.318600   -2.480551    2.055258
H       0.301139   -4.092626   -4.241400
