12

F       0.326463    0.110745    0.107396
C      -0.032507    1.402523    0.011562
F       1.090995    2.093706   -0.246594
F      -0.836273    1.521557   -1.056479
C      -0.705108    1.882697    1.247406
C      -1.967131    2.379497    1.332304
O      -2.249842    2.717941    2.610311
C      -1.146233    2.431502    3.355531
C      -0.163907    1.916272    2.576013
H      -2.743385    2.544469    0.605020
H      -1.222789    2.650579    4.407242
H       0.817386    1.598713    2.889503
