17

C       0.141321    1.045232   -0.356269
O      -0.014653   -0.269768    0.155045
C       0.600768   -0.477035    1.423642
C       0.178077   -1.866103    1.912799
C       1.044855   -2.862247    1.108925
C       2.363590   -2.137125    0.888689
O       3.433394   -2.597247    0.596632
C       2.103964   -0.621074    1.151905
O       2.933412    0.246259    1.088024
H       1.195561    1.311743   -0.499809
H      -0.371512    1.066945   -1.320094
H      -0.317349    1.784952    0.315726
H       0.367807    0.339732    2.118065
H       0.394979   -1.949594    2.983241
H      -0.893698   -2.017800    1.770486
H       1.197196   -3.829143    1.592478
H       0.599027   -3.048278    0.124623
