16

O      -0.024764    1.449749   -0.064565
C       0.030876    0.045755    0.004240
C       0.001592   -0.633139    1.394813
C      -1.507235   -0.208272    1.539929
N      -2.262811   -1.269706    2.191059
C      -1.646467   -2.438020    1.752857
O      -1.827973   -3.568680    2.130872
C      -0.665248   -1.891519    0.719164
C      -1.342207   -0.639220    0.050137
H       0.871277    1.794188   -0.001301
H       0.745474   -0.373811   -0.714531
H       0.771681   -0.646654    2.168692
H      -1.791453    0.805594    1.802537
H      -2.591674   -1.198820    3.141759
H      -0.081989   -2.603855    0.140265
H      -2.119123   -0.654822   -0.714733
