19

C      -0.221254    1.548514    0.165425
C      -0.004704    0.041350    0.065952
O       1.128543   -0.261968   -0.804172
C       1.862164   -0.912110    0.257604
C       0.737391   -0.634977    1.242497
C       0.809908   -0.194550    2.671289
C       0.181681   -1.521606    2.306818
C      -1.219077   -0.645320   -0.367680
C      -2.230282   -1.203670   -0.701597
H       0.695168    2.033604    0.510572
H      -0.487265    1.948468   -0.816748
H      -1.033437    1.778799    0.861684
H       2.049630   -1.970566    0.035638
H       2.818375   -0.411360    0.457319
H       1.782777   -0.197509    3.153280
H       0.155891    0.608259    2.996162
H      -0.897863   -1.613184    2.369366
H       0.723455   -2.432030    2.543400
H      -3.116746   -1.700852   -1.009948
