21

C       0.129063    1.523485    0.120934
C       0.083765   -0.006091    0.061208
C       0.711498   -0.570767   -1.204790
O       2.093702   -0.189087   -1.257430
C       2.777230   -1.122373   -2.054714
C       3.269288   -2.347372   -1.345112
C       1.970678   -2.389564   -2.131019
C       0.690021   -2.119435   -1.350003
O       0.720718   -2.825096   -0.115909
H       1.162100    1.875947    0.070101
H      -0.419837    1.969122   -0.716018
H      -0.316451    1.894344    1.048892
H       0.607055   -0.432684    0.923279
H      -0.960032   -0.347768    0.110531
H       0.198316   -0.151345   -2.088394
H       3.306158   -0.697436   -2.902536
H       4.113491   -2.882345   -1.767288
H       3.201018   -2.358951   -0.264564
H       1.917581   -2.986858   -3.032329
H      -0.188823   -2.425159   -1.935433
H      -0.099065   -2.641187    0.353924
