16

C      -0.013704    1.483651    0.040428
C      -0.002690   -0.007360    0.019535
N      -0.055957   -0.702272   -1.106013
N      -0.021903   -1.990033   -0.660086
C       0.048481   -1.994264    0.681101
N       0.098688   -3.134036    1.461510
C       0.086831   -4.424341    1.001693
N       0.024896   -4.708957   -0.242013
N       0.063254   -0.764861    1.160264
H       0.892673    1.872423    0.515539
H      -0.074261    1.870721   -0.978007
H      -0.867014    1.857880    0.614980
H      -0.045602   -2.806445   -1.255075
H       0.149385   -2.961592    2.452287
H       0.136003   -5.150789    1.818409
H       0.026925   -5.714743   -0.383463
