15

N      -0.029399    1.282172   -0.319946
C      -0.038271    0.043447   -0.093328
O       1.073196   -0.721326    0.165478
C       1.643941   -1.405058   -0.953129
C       0.762107   -2.470631   -1.524170
C      -0.532307   -2.684719   -1.278946
N      -1.425715   -1.962296   -0.484795
C      -1.362052   -0.690296    0.050856
O      -2.311461   -0.205189    0.622543
H       0.934640    1.625725   -0.343121
H       1.936533   -0.674229   -1.724276
H       2.567679   -1.848868   -0.567174
H       1.248353   -3.156234   -2.210757
H      -1.016528   -3.532796   -1.750909
H      -2.342697   -2.366830   -0.358782
