20

O       1.073789   -0.757082    0.424243
C       0.264179    0.058985   -0.410983
C      -1.184011   -0.441569   -0.422751
C      -2.149818   -0.012058    0.755737
C      -2.834869    0.852394   -0.318750
C      -3.999173    1.196815   -1.293932
C      -2.609452    1.354006   -2.053904
C      -2.098460    2.139156   -0.840456
N      -2.266648    0.002328   -1.415575
H       1.079780   -1.645285    0.052266
H       0.361365    1.063322    0.005879
H       0.643434    0.089044   -1.445033
H      -1.117735   -1.530473   -0.535364
H      -2.754269   -0.846376    1.116614
H      -1.701576    0.515961    1.600047
H      -4.605001    0.347065   -1.607085
H      -4.575072    2.112942   -1.141629
H      -2.471086    1.562243   -3.117911
H      -2.569408    3.104670   -0.632160
H      -1.020671    2.199251   -0.711825
