16

C       0.017136    1.502951    0.006776
C      -0.030267    0.004809    0.001090
C      -1.187382   -0.694311   -0.099052
C      -1.176876   -2.131960   -0.104220
N      -2.183844   -2.895134   -0.198304
O       0.117126   -2.700731    0.008528
C       1.197793   -1.901840    0.109392
N       2.336104   -2.624771    0.259740
N       1.206329   -0.611984    0.103687
H       0.638721    1.861065   -0.821085
H      -0.979280    1.940471   -0.079154
H       0.486997    1.859975    0.929755
H      -2.152093   -0.213737   -0.181327
H      -1.905146   -3.875585   -0.175264
H       2.317627   -3.598470    0.008156
H       3.199592   -2.120364    0.149635
