21

C      -0.370706    1.331865    0.185527
C       1.088778    0.992960   -0.013145
C       0.064924   -0.104628    0.023426
C      -0.042689   -1.088993    1.187727
C      -1.228786   -1.994372    0.817808
C      -2.631912   -1.358968    0.903415
O      -2.697210   -1.175474   -0.525919
C      -1.425800   -1.839016   -0.720128
C      -0.333904   -0.894336   -1.220124
H      -0.683589    1.667977    1.168908
H      -0.907510    1.797494   -0.633941
H       1.545250    1.235818   -0.967441
H       1.757142    1.098943    0.835610
H       0.871316   -1.693674    1.255264
H      -0.172359   -0.591492    2.154828
H      -1.149186   -3.003921    1.222043
H      -3.423638   -2.029473    1.262170
H      -2.698751   -0.406926    1.444764
H      -1.540028   -2.744265   -1.326571
H      -0.685631   -0.266394   -2.043956
H       0.514189   -1.488616   -1.588038
