18

C      -0.225762    1.282495   -0.020672
O       0.226872   -0.042205    0.157147
C       0.712981   -0.625610   -1.012922
C       1.292300   -2.009914   -0.896333
C       0.274997   -3.116422   -1.010240
C      -1.164824   -2.827489   -0.767477
C      -1.499873   -1.749557   -1.476945
C      -0.253206   -1.217976   -2.124718
N       0.705995   -2.410511   -2.236867
H       0.566024    1.931132   -0.426765
H      -1.093115    1.333875   -0.695991
H      -0.523121    1.659239    0.960486
H       1.441978    0.033342   -1.506491
H       2.322739   -2.226122   -0.632025
H       0.664662   -4.124029   -0.899481
H      -1.792043   -3.406864   -0.103564
H      -2.453368   -1.237923   -1.480724
H      -0.362726   -0.648655   -3.046423
