18

C       0.007799    1.565081   -0.009055
C       0.076928    0.055557   -0.042442
C       0.685372   -0.738463   -1.152245
C       0.037443   -1.803338   -1.972337
O       1.787168   -0.035242   -1.732470
C       2.533717   -0.091374   -0.492618
C       1.359720   -0.740965    0.238818
C       1.451348   -1.753610    1.230233
N       1.525224   -2.582365    2.036535
H       0.800351    2.010433   -0.613938
H      -0.949349    1.904456   -0.417760
H       0.089176    1.943725    1.014375
H      -0.778917   -0.453438    0.396067
H      -0.473485   -1.354131   -2.831328
H       0.779755   -2.512692   -2.348241
H      -0.703969   -2.345835   -1.380013
H       3.394560   -0.759329   -0.590310
H       2.858896    0.896294   -0.149803
