21

C      -0.007467    1.465880    0.382729
C       0.019238   -0.028895    0.135256
C      -1.302404   -0.605834   -0.339664
C       1.292931   -0.643198   -0.443658
O       2.409204    0.137808   -0.732933
C       0.955703   -0.889797    0.998990
O       1.831979   -0.208261    1.864190
C       0.583200   -2.238830    1.562529
O       0.052106   -2.087488    2.882887
H       0.959944    1.839649    0.716076
H      -0.278296    1.997159   -0.536368
H      -0.751935    1.722245    1.146024
H      -1.656301   -0.060088   -1.222135
H      -1.225262   -1.659514   -0.624174
H      -2.083153   -0.523304    0.427720
H       1.166156   -1.460864   -1.151895
H       2.874736    0.278447    0.101798
H       1.505222   -0.378310    2.757415
H      -0.108056   -2.781586    0.908138
H       1.485335   -2.847542    1.683614
H      -0.812999   -1.671120    2.800882
