14

N      -0.014220    1.361042   -0.129166
C      -0.000873    0.001861    0.030828
N      -1.050975   -0.697472    0.401887
O      -0.528719   -2.007533    0.498242
C       0.756380   -1.927769    0.160286
N       1.156078   -0.728665   -0.142002
C       1.584468   -3.147516    0.175431
C       1.297168   -4.261247    1.098592
O       0.968106   -4.352177   -0.281774
H       0.691340    1.710193   -0.759128
H      -0.927599    1.768798   -0.259236
H       2.602447   -2.976921   -0.165085
H       2.122320   -4.888584    1.431520
H       0.450368   -4.179486    1.776268
