14

O       0.680647    0.882502   -0.753940
C       0.049135   -0.142979   -0.031867
C       0.131931   -0.173679    1.518923
C      -1.314254   -0.740555    1.519601
O      -2.212765   -0.385706    2.538703
C      -1.499500   -0.180210    0.082785
H       0.372381    1.725932   -0.406467
H       0.429716   -1.074630   -0.459980
H       0.929383   -0.743325    2.000286
H       0.136934    0.849710    1.917534
H      -1.303094   -1.834133    1.511912
H      -2.253557    0.575443    2.579554
H      -1.900101    0.841573    0.124266
H      -2.075515   -0.755350   -0.644921
