17

O       0.180573    1.281003    0.240110
C       0.046233   -0.092192   -0.028941
C      -1.434477   -0.515994   -0.067150
O      -2.060779   -0.141205    1.168877
C      -1.928907   -1.079013    2.214204
C      -2.836820   -0.638716    3.352672
O      -2.813225   -1.135385    4.446052
C      -2.166472    0.124034   -1.155953
C      -2.749522    0.627954   -2.076456
H      -0.439395    1.481034    0.952257
H       0.509463   -0.290060   -1.000163
H       0.565343   -0.711026    0.722189
H      -1.490323   -1.609526   -0.187511
H      -2.247701   -2.084559    1.891831
H      -0.900319   -1.168033    2.592623
H      -3.536338    0.179188    3.074315
H      -3.266762    1.081036   -2.886127
