17

C      -0.209060    1.500753    0.019496
C       0.054808    0.018097   -0.092631
C       0.653332   -0.681848   -1.253375
C       1.749666    0.096040   -1.929134
C       3.072743   -0.563905   -1.643289
C       2.399939    0.213602   -0.542634
C       3.009212    1.327250    0.111802
N       3.499844    2.231264    0.642634
N       1.374811   -0.634141    0.112390
H       0.489561    2.107504   -0.557951
H      -1.220233    1.715558   -0.341692
H      -0.151798    1.820139    1.064697
H      -0.696081   -0.585649    0.415207
H       0.255717   -1.619836   -1.628939
H       1.632980    0.849254   -2.699088
H       3.138523   -1.642130   -1.532503
H       3.940670   -0.085877   -2.085445
