10

N       0.074031   -3.708903   -0.018706
C       0.041698   -2.547748   -0.011887
C       0.008920   -1.184113   -0.003944
C      -0.018356    0.024137    0.003071
C      -0.014064    1.433180    0.010801
N      -1.115874    2.156812    0.028856
O      -0.703566    3.444892    0.030702
N       0.662857    3.548302    0.013836
C       1.103641    2.324702    0.001459
H       2.158304    2.100704   -0.013239
