16

O      -0.446140    0.671970    0.690871
C       0.074293    1.197854   -0.260145
C       1.335908    2.029421   -0.167630
C       1.304082    3.292610   -1.048868
N       0.002450    3.865328   -0.549630
C       0.787390    4.186551    0.671943
C       2.133229    4.257807   -0.064643
O       2.810477    3.463376    0.909483
C       1.505660    2.846825    1.129663
H      -0.328644    1.062229   -1.287488
H       2.213875    1.394159   -0.326195
H       1.457764    3.218120   -2.123574
H      -0.194941    4.740010   -1.034577
H       0.400708    4.881262    1.414373
H       2.669235    5.131209   -0.435575
H       1.380234    2.371082    2.097674
