12

N      -0.004815    1.392473    0.149011
C       0.034681    0.017158    0.040095
N      -1.075353   -0.698143    0.007245
O      -0.675660   -2.028614   -0.014090
C       0.665127   -2.079363   -0.010423
C       1.339070   -3.384794   -0.036106
O       0.778286   -4.452099   -0.061312
C       1.187652   -0.820009    0.024328
H       0.732134    1.878237   -0.340461
H      -0.916258    1.782624   -0.049480
H       2.446482   -3.296386   -0.030185
H       2.226340   -0.533022    0.048146
