18

O       0.029139    1.268718    0.185036
C       0.001320   -0.129407   -0.003627
C      -1.468256   -0.579800   -0.174654
C      -1.297309   -0.441253   -1.711143
C       0.238802   -0.575344   -1.484834
N       0.732319   -1.925674   -1.587780
C       0.179602   -2.909808   -1.020332
O      -0.919262   -3.052526   -0.234942
C      -1.736995   -1.994853    0.297760
H       0.937526    1.566117    0.066788
H       0.607357   -0.657021    0.747177
H      -2.196758    0.077960    0.308043
H      -1.761119   -1.195521   -2.350878
H      -1.571207    0.556341   -2.058236
H       0.880643    0.086328   -2.073347
H       0.605405   -3.903999   -1.153335
H      -1.628309   -2.048463    1.388445
H      -2.766325   -2.276112    0.049143
