22

C      -0.235515    1.475219   -0.004721
C       0.034511   -0.036427   -0.043131
C       0.833708   -0.369997   -1.309303
O       0.025204   -0.067958   -2.439887
C       0.744557   -0.573488    1.226748
C       0.233706    0.057045    2.530941
C       0.623176   -2.099358    1.327526
O       1.485008   -2.547966    2.366335
H       0.690167    2.034936    0.178441
H      -0.640292    1.798732   -0.966093
H      -0.950104    1.745281    0.776106
H      -0.934484   -0.548579   -0.138459
H       1.761117    0.227168   -1.314282
H       1.128636   -1.428918   -1.321400
H       0.554511   -0.199627   -3.231391
H       1.818046   -0.347995    1.142417
H      -0.853049   -0.060798    2.624720
H       0.701306   -0.438818    3.384297
H       0.460928    1.123987    2.588082
H      -0.426574   -2.360962    1.542718
H       0.889345   -2.579441    0.375099
H       1.347865   -3.492121    2.483569
