27

C       0.201685    1.562963    0.064476
C       0.057950    0.043514   -0.068900
C      -1.393232   -0.477176    0.003936
C      -2.189413   -0.091398   -1.263369
C      -3.709133    0.095916   -1.097936
C      -4.445625   -0.941387   -0.226203
C      -3.927552   -2.387162   -0.316623
C      -2.721287   -2.662879    0.596637
C      -1.388024   -2.006517    0.209112
H       1.253889    1.861856    0.020262
H      -0.322958    2.101959   -0.730938
H      -0.202506    1.912689    1.021235
H       0.509560   -0.289610   -1.014044
H       0.643437   -0.432236    0.727837
H      -1.865401   -0.008489    0.881104
H      -1.791374    0.838063   -1.685063
H      -1.996562   -0.858845   -2.024625
H      -3.905676    1.092489   -0.682772
H      -4.153268    0.101479   -2.101398
H      -4.401812   -0.633830    0.826727
H      -5.508408   -0.914651   -0.493869
H      -4.734771   -3.066633   -0.017817
H      -3.687943   -2.645631   -1.357018
H      -2.990583   -2.347869    1.614867
H      -2.557245   -3.746381    0.653375
H      -1.011534   -2.470252   -0.714406
H      -0.656611   -2.257594    0.988071
