14

N      -0.001343    1.373177   -0.133709
C       0.000504    0.018747    0.007298
N       1.191358   -0.623934    0.117959
H       1.125568   -1.637470    0.065604
H       2.002469   -0.197351   -0.300822
C      -1.182706   -0.695250    0.030296
C      -1.273475   -2.124051    0.018102
O      -0.449883   -3.016243    0.013812
O      -2.662109   -2.369666    0.014282
C      -3.249170   -1.137395    0.029474
N      -2.462188   -0.124402    0.040339
H       0.758226    1.891023    0.280261
H      -0.915097    1.795825   -0.048776
H      -4.329366   -1.125200    0.033606
