14

N       0.028126    1.314114    0.095003
C      -0.021263   -0.032000    0.026281
C      -1.111670   -0.845164    0.010002
C      -2.459049   -0.435069    0.018959
C      -3.595916   -0.033993    0.024065
C      -0.643313   -2.242555   -0.024184
O      -1.252517   -3.270554   -0.049076
O       0.747439   -2.223152   -0.029326
C       1.216526   -0.888214    0.006492
H       0.881581    1.804381   -0.110815
H      -0.831638    1.828369   -0.017907
H      -4.608081    0.286194    0.032603
H       1.839391   -0.689876   -0.876351
H       1.832713   -0.733037    0.901775
