17

C      -0.004593    1.488276    0.050600
C      -0.024661    0.034091    0.009790
C      -0.048082   -1.170769   -0.009718
C      -0.044060   -2.594572   -0.081303
C       0.757850   -3.440485   -1.096063
C      -0.410201   -4.479504   -1.123258
C      -1.167025   -3.617775   -0.105977
N      -0.385603   -3.397950    1.099143
H       0.898769    1.886292   -0.425090
H      -0.868714    1.916331   -0.470100
H      -0.023910    1.855507    1.082729
H       0.888006   -2.936892   -2.055633
H       1.735476   -3.783943   -0.742223
H      -0.897335   -4.526583   -2.099806
H      -0.183639   -5.499827   -0.795855
H      -2.238373   -3.462207   -0.050418
H       0.294682   -4.138173    1.269466
