21

C       0.204872    1.570372   -0.421989
C       0.100709    0.139562   -0.171740
C       0.014829   -1.044363    0.033656
C      -0.096549   -2.472492    0.294500
C       0.392718   -2.917088    1.696250
C      -0.243655   -4.303511    1.843007
C      -1.681324   -4.092663    1.329151
O      -2.516859   -3.522817    2.336996
C      -1.553193   -3.034029    0.209739
H       0.562791    2.105894    0.464621
H       0.902276    1.784171   -1.239861
H      -0.765615    1.999499   -0.695756
H       0.514448   -3.006868   -0.446239
H       1.482161   -2.913949    1.778947
H      -0.010530   -2.239598    2.454865
H       0.274797   -5.028976    1.202552
H      -0.223879   -4.696240    2.865036
H      -2.125545   -5.027707    0.960021
H      -2.570053   -4.150894    3.064759
H      -2.286655   -2.247503    0.395721
H      -1.756445   -3.452945   -0.778443
