18

O       0.006951    0.037632    0.721067
C      -0.016916    1.119750    0.181839
C      -1.312230    1.864748   -0.171886
O      -1.600498    2.894508    0.760281
C      -0.827587    4.074879    0.648681
C       0.620003    3.898298    1.136683
C       1.487126    3.150837    0.145135
C       2.320717    1.968532    0.561358
N       1.128832    1.793206   -0.232177
H      -1.248533    2.268347   -1.194249
H      -2.135368    1.151312   -0.107901
H      -0.839363    4.447578   -0.389540
H      -1.339041    4.811071    1.275695
H       1.061924    4.883961    1.324357
H       0.586793    3.367266    2.094851
H       1.850857    3.751887   -0.688139
H       3.263779    1.767031    0.060591
H       2.271318    1.651789    1.600519
