13

C       0.046497    1.086292    0.926479
C       0.119404    0.251351   -0.351549
N       0.883720   -0.970682   -0.113325
C       1.830489   -1.281918   -0.851980
O       2.347408   -0.644782   -1.966393
N       3.418139   -1.416685   -2.414950
N       3.555604   -2.406423   -1.691125
O       2.603992   -2.410230   -0.685388
H      -0.376409    0.497580    1.744843
H       1.042159    1.423467    1.229832
H      -0.581275    1.968347    0.767984
H      -0.892575   -0.050679   -0.646918
H       0.532213    0.850103   -1.174059
