21

C      -0.186854    1.624690   -0.031501
C      -0.000454    0.097464    0.024476
C       0.762518   -0.433582   -1.152437
C       2.038472   -0.859156   -1.239878
C       3.061817   -0.924270   -0.153041
C       2.406494   -1.311324   -2.639527
C       1.130961   -1.102122   -3.470919
C       0.104506   -0.546381   -2.476866
O      -1.045074   -0.255825   -2.729578
H       0.778260    2.141514   -0.017004
H      -0.714574    1.909288   -0.945219
H      -0.772491    1.974517    0.824194
H       0.490710   -0.184517    0.961667
H      -0.990697   -0.372951    0.025925
H       3.443210   -1.947306   -0.041882
H       3.928522   -0.299049   -0.403334
H       2.673038   -0.595482    0.812739
H       3.258851   -0.733400   -3.019138
H       2.736752   -2.358004   -2.630018
H       1.262979   -0.391075   -4.291792
H       0.746748   -2.025497   -3.913907
