21

O       0.234765    1.322547   -0.442763
C       0.071442   -0.069080   -0.162235
C       0.886998   -0.439673    1.058993
C       0.954888    0.239115    2.204192
C       0.280115    1.545777    2.557703
C      -1.254241    1.490864    2.765741
C      -2.133170    1.517987    1.489526
C      -2.292986    0.206727    0.750046
C      -1.378927   -0.468057    0.049294
H      -0.412805    1.546999   -1.119435
H       0.459806   -0.648948   -1.013880
H       1.416269   -1.385942    0.982021
H       1.563860   -0.199303    2.993057
H       0.722106    1.909866    3.491530
H       0.502327    2.292036    1.790496
H      -1.517445    0.620747    3.378672
H      -1.528029    2.374850    3.354415
H      -3.131783    1.855554    1.787550
H      -1.734705    2.285549    0.819441
H      -3.281731   -0.243904    0.818165
H      -1.663069   -1.422115   -0.389630
