21

C      -0.048056    1.564028   -0.016434
C       1.481899    1.411968   -0.018841
C       1.328507    0.070223    0.796423
C      -0.025659    0.026705   -0.011539
C       0.676196   -0.418764   -1.313341
C       1.363986   -1.715066   -0.838341
C       2.301283   -0.991811    0.154937
C       3.095823   -0.123716   -0.846732
C       1.859707    0.668741   -1.319073
H      -0.422084    1.976041    0.925272
H      -0.524205    2.077775   -0.858195
H       2.147718    2.219409    0.291168
H       1.268515    0.141231    1.881278
H      -0.884767   -0.567078    0.305855
H       0.063678   -0.468087   -2.213964
H       0.652959   -2.400962   -0.366160
H       1.910887   -2.261016   -1.612901
H       2.873705   -1.611129    0.845362
H       3.841749    0.529146   -0.381612
H       3.589592   -0.718484   -1.621036
H       1.955811    1.270557   -2.223128
