17

C       0.181507    1.510034    0.012941
O       1.180065    0.517093   -0.206210
C      -0.161487    0.074437    0.013743
C      -0.443937   -0.676203    1.268900
C       0.459837   -0.660135    2.334662
C       0.171686   -1.347503    3.509228
C      -1.020560   -2.058934    3.632734
C      -1.920874   -2.085859    2.570304
C      -1.630871   -1.402100    1.392938
H       0.243768    2.034502    0.965240
H      -0.065723    2.126276   -0.850775
H      -0.652769   -0.316085   -0.878418
H       1.394647   -0.122895    2.219878
H       0.882661   -1.333092    4.328987
H      -1.242958   -2.595639    4.548967
H      -2.847119   -2.644709    2.654993
H      -2.331518   -1.430479    0.563191
