20

C      -0.132353    1.400323    0.129593
C       1.271686    0.869947   -0.038248
C       0.110412   -0.090871    0.061649
C       0.013836   -0.771584   -1.289278
C      -0.370712   -2.226581   -1.380702
C      -1.308523   -1.168729   -1.905603
C       1.157616   -0.238190   -2.130464
C       1.181982    1.195068   -2.527642
N       1.927082    0.746388   -1.343410
H      -0.369739    1.816971    1.103333
H      -0.645958    1.891592   -0.687875
H       1.973207    1.008882    0.776242
H      -0.065139   -0.690477    0.948772
H       0.155791   -2.846933   -2.099112
H      -0.638135   -2.739714   -0.462710
H      -2.211821   -0.959289   -1.342561
H      -1.418117   -1.070537   -2.980558
H       1.736581   -0.960130   -2.703718
H       1.811112    1.514542   -3.354713
H       0.279927    1.785205   -2.405427
