22

C      -0.559083    1.850506    0.239931
C      -0.451212    0.390364   -0.205625
C      -1.644827   -0.485529    0.182611
C      -1.464731   -1.920280   -0.318296
O      -1.750345   -0.436540    1.613067
C      -2.967656   -0.906445    2.153913
C      -4.107959    0.121774    2.200227
N      -3.715236    1.408294    2.010512
O      -5.252630   -0.222931    2.418763
H       0.284367    2.436972   -0.136521
H      -1.477838    2.316244   -0.134724
H      -0.549974    1.928073    1.331179
H      -0.344630    0.342633   -1.295644
H       0.456010   -0.058737    0.217296
H      -2.560783   -0.057438   -0.256162
H      -2.313998   -2.558165   -0.059618
H      -1.369897   -1.929903   -1.408598
H      -0.560607   -2.361194    0.113214
H      -3.353517   -1.792243    1.638519
H      -2.761401   -1.202319    3.188849
H      -2.738338    1.627918    1.917755
H      -4.393673    2.144032    2.114908
