19

C      -0.013311    1.526450    0.063322
C       0.028636    0.007528   -0.011688
C       0.710430   -0.517249   -1.282536
C       0.830125   -2.047538   -1.246856
C       1.485594   -2.494122    0.066882
C       0.757864   -1.859642    1.253630
O       0.713607   -0.447007    1.152303
H       1.001469    1.936412    0.045954
H      -0.569297    1.939056   -0.784072
H      -0.496487    1.849806    0.989194
H      -1.005108   -0.386020    0.013565
H       0.145994   -0.191066   -2.163902
H       1.709249   -0.066429   -1.351045
H      -0.172504   -2.491316   -1.320335
H       1.397400   -2.411613   -2.110062
H       1.472785   -3.585855    0.164370
H       2.535351   -2.175975    0.085695
H      -0.267821   -2.265134    1.320058
H       1.264800   -2.081126    2.197827
