17

C       0.099233    1.561906   -0.003203
C      -0.013381    0.027271   -0.009510
C      -1.425518   -0.454070   -0.102295
C      -1.965329   -1.179523   -1.103183
N      -3.293788   -1.573029   -1.094410
C      -4.006423   -1.213089   -0.086132
C      -3.512647   -0.420091    1.044094
N      -4.137894   -0.014609    2.071238
O      -2.176533   -0.076644    0.963201
H       1.144899    1.864528    0.098298
H      -0.291208    1.986489   -0.932912
H      -0.464725    1.987480    0.830251
H       0.548635   -0.396209   -0.846898
H       0.427483   -0.371726    0.912798
H      -1.369095   -1.482844   -1.953584
H      -5.054361   -1.508315   -0.051665
H      -5.107896   -0.323881    2.030690
