23

C       0.163414    1.557604   -0.124835
C       0.082726    0.053231    0.010661
C       1.347589   -0.774818    0.153384
C       0.392303   -0.618123    1.315146
O       0.746591    0.198159    2.384986
C       1.593983   -0.445387    3.325946
C       1.956445    0.532578    4.408079
C       1.009785    0.771674    5.554828
C       2.297260    0.021529    5.785733
H       0.929918    1.966785    0.536884
H       0.403105    1.845881   -1.153990
H      -0.788621    2.028536    0.143114
H      -0.716984   -0.409829   -0.561849
H       1.419379   -1.732668   -0.350625
H       2.281182   -0.225127    0.220361
H      -0.203646   -1.487567    1.599936
H       1.079270   -1.318024    3.763693
H       2.496316   -0.822476    2.819214
H       2.517173    1.393579    4.055918
H       0.921740    1.778952    5.945829
H       0.082996    0.207855    5.567542
H       2.238014   -1.047992    5.960402
H       3.094463    0.513827    6.331121
