16

O      -0.370867    0.702890   -0.828490
C       0.236737    0.980040    0.173693
C       1.469949    1.817268    0.189677
C       1.600709    2.847409    1.264152
N       2.355485    1.549607    1.350512
C       3.636018    2.303343    1.064640
C       2.871018    3.632421    1.030121
C       3.110765    4.932002    0.403634
O       3.240984    4.735015    1.823887
H      -0.082756    0.630279    1.179705
H       1.904655    2.012832   -0.788287
H       0.797705    3.107763    1.946093
H       4.300806    2.241260    1.928650
H       4.158144    1.969733    0.163342
H       4.044621    5.113287   -0.125953
H       2.268311    5.548212    0.093795
