19

C      -0.292777    1.578872   -0.018801
C       0.026802    0.089327    0.066844
C       0.583994   -0.624712   -1.167658
C       1.945842   -0.173075   -1.498378
N       1.790852   -1.176388   -0.421857
C       1.296538   -0.440308    0.810360
C       2.324170    0.470629    1.458845
O       3.451111   -0.279453    1.879895
H       0.543795    2.164646   -0.409879
H      -1.151012    1.748519   -0.678114
H      -0.549774    1.982177    0.966536
H      -0.853002   -0.438916    0.444666
H       0.005316   -1.251483   -1.839315
H       2.410179   -0.595337   -2.384203
H       2.269425    0.837409   -1.266436
H       1.029687   -1.207514    1.542371
H       2.623173    1.289969    0.787057
H       1.898013    0.934086    2.356002
H       3.683002   -0.864701    1.148913
