19

C      -0.043511    1.590588    0.123856
C      -0.004932    0.069106    0.042812
C      -1.387837   -0.526304   -0.192761
O      -1.850441   -0.098357   -1.466235
C       1.056340   -0.570869   -0.939757
C       1.675966   -1.295939    0.256490
N       2.121187   -0.233614    1.194027
C       0.706034   -0.673528    1.195801
H       0.955038    1.983199    0.327296
H      -0.410952    2.014401   -0.814779
H      -0.713727    1.921873    0.926619
H      -1.329670   -1.626163   -0.141844
H      -2.069425   -0.194516    0.608512
H      -2.727601   -0.465396   -1.607385
H       0.587795   -1.227113   -1.674850
H       1.723428    0.130173   -1.446672
H       2.135569   -2.276570    0.280424
H       2.573643   -0.698912    1.980866
H       0.251286   -1.064510    2.099916
