20

C       0.275559    1.286005   -0.167497
O       0.008444   -0.101618   -0.143149
C      -1.326192   -0.533233   -0.050406
C      -2.206583   -0.032014    1.130804
O      -3.266075    0.326003    0.221349
C      -2.432225    0.112349   -0.933600
C      -1.309544   -2.044131   -0.165872
C      -0.349494   -2.735968   -1.056953
N      -0.211874   -2.827110    0.411491
H       1.363069    1.387261   -0.151916
H      -0.106604    1.766147   -1.077263
H      -0.136336    1.809782    0.704180
H      -2.517116   -0.789401    1.858523
H      -1.810952    0.839205    1.667882
H      -2.151686    1.054508   -1.420676
H      -2.902449   -0.545090   -1.673326
H      -2.294823   -2.482531   -0.019010
H      -0.639135   -3.659870   -1.549328
H       0.365134   -2.123341   -1.596796
H       0.518431   -2.177587    0.697193
