16

O       0.110270   -0.067917   -0.017397
C      -0.026658    1.151486    0.017408
C      -1.196891    1.945089    0.124817
H      -2.164143    1.464457    0.201617
C      -1.122394    3.357475    0.022818
O      -2.011378    4.203480   -0.006966
C       0.350504    3.879130   -0.062438
C       1.167071    3.122368   -1.132796
C       1.278783    2.010274   -0.067008
N       1.140291    3.103820    1.012873
H       2.020905    3.540553    1.290032
H       0.583925    2.825483    1.824732
H       0.400463    4.960533    0.044657
H       0.636606    2.861113   -2.046004
H       2.124200    3.598367   -1.372134
H       2.170863    1.396278    0.035941
