21

C       0.038909    1.526689    0.034193
C      -0.008072    0.026796    0.043843
C      -0.926147   -0.779645    0.925655
C       0.570343   -0.951331    1.049317
C       1.263895   -1.752319   -0.088243
C       2.695254   -2.180169    0.073454
C       0.372194   -2.269122   -1.164084
O      -0.834578   -2.954427   -0.953794
C       0.623037   -0.782959   -1.124433
H       1.038075    1.896874   -0.225973
H      -0.666345    1.944312   -0.696233
H      -0.223054    1.932688    1.016672
H      -1.353301   -0.198349    1.739975
H      -1.555581   -1.572176    0.550594
H       1.101113   -0.727166    1.967076
H       2.780434   -2.996172    0.802512
H       3.116678   -2.532154   -0.873357
H       3.319075   -1.353048    0.432387
H       0.968691   -2.722713   -1.962019
H      -1.417812   -2.745728   -1.692215
H       1.104779   -0.280317   -1.957075
