20

C       0.189941    1.371218    0.197357
C      -0.239393   -0.081420    0.012761
O      -1.671879   -0.185777   -0.014484
C      -2.302495   -0.371285    1.159691
N      -3.563557   -0.369884    1.209963
C       0.234910   -0.637538   -1.312584
O       1.638180   -0.875802   -1.426542
C       0.747870   -2.000233   -1.518745
C       0.853699   -3.067551   -0.461212
H       1.280225    1.442135    0.150923
H      -0.238665    1.997152   -0.590923
H      -0.145995    1.757621    1.164074
H       0.156012   -0.690552    0.833970
H      -1.616747   -0.527601    2.005112
H      -3.872192   -0.545910    2.163714
H      -0.211783   -0.129627   -2.169996
H       0.656676   -2.388418   -2.535224
H       0.974566   -2.646204    0.538779
H      -0.040013   -3.700360   -0.471134
H       1.719854   -3.706866   -0.660342
