11

O      -0.053505   -0.035310    0.004424
C      -0.026276    1.172329    0.009715
C      -1.266987    1.983453    0.031570
N      -1.324856    3.262913    0.038581
O      -0.092536    3.924797    0.023849
C       1.052639    3.194675    0.003493
N       1.160310    1.915011   -0.003939
C       2.194788    4.048221   -0.008216
C       3.157594    4.766463   -0.018112
H      -2.227528    1.476245    0.043061
H       4.015792    5.394492   -0.027027
