15

O      -0.235345    0.089061   -0.498329
C      -0.102025    1.180686   -0.066577
O      -1.130826    2.076181    0.326178
C      -0.117170    2.861029    1.067908
C       0.751195    4.182166    0.959473
C       1.964253    3.112261    1.145828
C       0.966481    2.269862    0.224170
C       0.949228    3.189581   -1.028731
C       0.819084    4.419410   -0.537167
H      -0.161077    2.517762    2.103750
H       0.627781    5.017831    1.647205
H       2.915664    3.406381    0.702099
H       2.089170    2.738392    2.164511
H       1.048790    2.830586   -2.042457
H       0.774708    5.375062   -1.038296
