16

O       0.379550    0.925686   -0.761366
C       0.035762   -0.257065   -0.095545
C       0.462220   -0.211557    1.377808
O       1.450076    0.364913    1.784115
N      -0.471160   -0.890198    2.095965
C      -1.640734   -1.304669    1.329521
C      -1.454444   -0.538888    0.013243
C      -2.474131    0.333915   -0.570593
O      -2.191348   -0.969380   -1.113662
H       1.117765    1.298432   -0.255527
H       0.521952   -1.132059   -0.562678
H      -0.390360   -0.995548    3.095148
H      -1.650078   -2.386063    1.140733
H      -2.571583   -1.039109    1.839419
H      -3.443708    0.432798   -0.084762
H      -2.154910    1.170712   -1.185610
