20

O       0.534610    0.882702   -0.670748
C       0.137296   -0.239407    0.080754
C       0.043484   -0.145323    1.626030
C      -1.207029   -1.064770    1.568703
C      -1.329390   -0.738125    0.064574
C      -2.512036    0.024145   -0.581539
C      -1.957609   -0.545784   -1.906640
N      -1.842602   -1.761412   -0.961490
C      -3.240525   -1.331302   -0.476206
H      -0.015529    1.627968   -0.406502
H       0.802999   -1.053490   -0.224296
H       0.905560   -0.479803    2.205642
H      -0.218069    0.871003    1.940239
H      -0.959168   -2.118480    1.724964
H      -2.046957   -0.801546    2.214948
H      -2.891941    1.029728   -0.360473
H      -2.667274   -0.709050   -2.722453
H      -1.000301   -0.170340   -2.266727
H      -3.501182   -1.713460    0.513154
H      -4.031160   -1.539735   -1.202490
