16

C      -0.042677    1.422840   -0.013525
N      -0.046170   -0.026722   -0.022920
C       0.578180   -0.622768    0.923020
N       1.287770   -0.037976    1.949552
C       0.595081   -2.094328    0.920692
N       1.161377   -2.808838    1.899150
N       0.952707   -4.060593    1.520124
N       0.298590   -4.233816    0.376534
C       0.059488   -2.988494   -0.025981
H       0.976387    1.841045   -0.032079
H      -0.573506    1.794591   -0.893304
H      -0.550122    1.840645    0.872963
H       1.073472    0.916110    2.186680
H       1.545912   -0.636045    2.718925
H       1.274834   -4.841292    2.068939
H      -0.466438   -2.772671   -0.939951
