16

N       0.227940    1.514142    0.346834
C      -0.013529    0.130514   -0.032687
C      -1.498589   -0.185377   -0.321650
C      -1.393926   -1.396255   -1.250645
O      -0.176787   -1.194249   -2.002709
C       0.639389   -0.323613   -1.358474
N       1.749937    0.110381   -1.761287
C       0.480081   -0.753199    1.041462
N       0.848872   -1.473121    1.866324
H       1.234899    1.660666    0.383732
H      -0.104081    2.111994   -0.406299
H      -2.081477   -0.376329    0.578998
H      -1.934445    0.669637   -0.848320
H      -1.310486   -2.334473   -0.691551
H      -2.214560   -1.477316   -1.965097
H       2.006430   -0.288427   -2.665137
