14

N       0.092722    1.437106    0.148698
C      -0.007832    0.048787    0.040555
C      -1.155831   -0.672494    0.018429
O      -2.377187   -0.093210    0.024795
C      -1.132778   -2.129933   -0.020052
O      -2.206376   -2.728378   -0.043525
N       0.107932   -2.764786   -0.051510
C       1.167919   -2.027366   -0.023913
N       1.177649   -0.668158    0.020874
H       0.617602    1.865702   -0.607115
H      -0.829634    1.853665    0.194010
H      -2.978299   -0.865843    0.002660
H       2.152397   -2.489844   -0.037150
H       2.045629   -0.170326    0.148181
