23

C      -0.262954    1.532205    0.424644
C      -0.508231    0.031721    0.547108
C      -1.447049   -0.527383   -0.505084
O      -1.956433    0.162183   -1.360027
C      -1.760171   -2.021968   -0.424401
C      -3.223763   -2.230035   -0.018785
C      -3.624645   -3.705792   -0.024212
O      -3.352391   -1.646135    1.275915
C      -4.673196   -1.326197    1.651769
H       0.410869    1.882008    1.211861
H       0.179324    1.778640   -0.544307
H      -1.202141    2.086096    0.500945
H       0.431924   -0.536096    0.493175
H      -0.945868   -0.233719    1.519428
H      -1.597360   -2.459615   -1.414405
H      -1.109620   -2.530021    0.294663
H      -3.851636   -1.670903   -0.729876
H      -3.000750   -4.273817    0.673191
H      -4.670609   -3.836853    0.267457
H      -3.505264   -4.132006   -1.025184
H      -4.616731   -0.809686    2.613255
H      -5.152050   -0.659719    0.918562
H      -5.305645   -2.217221    1.774609
