17

C      -0.155348    1.403520    0.193526
N       0.436308    0.106220   -0.130810
C       0.826541   -0.714911    0.915101
C       0.734363   -2.063788    1.125823
C       0.056371   -3.078806    0.258266
C       1.438221   -2.294611    2.361983
C       1.875408   -1.092790    2.803434
O       1.510749   -0.108521    1.919181
H       0.559642    1.989602    0.773835
H      -0.357978    1.938461   -0.737358
H      -1.089218    1.330434    0.771811
H      -0.100237   -0.410105   -0.813556
H       0.759632   -3.624409   -0.383986
H      -0.472990   -3.824882    0.860738
H      -0.687392   -2.615062   -0.400320
H       1.577251   -3.246041    2.853344
H       2.413284   -0.757702    3.673392
