19

C      -0.387911    1.568248   -0.070883
C       0.062334    0.111231   -0.050192
N       1.158874   -0.164763   -0.974789
C       1.932219   -1.233456   -0.523449
O       2.785020   -1.821612   -1.148330
N       1.526829   -1.484338    0.782589
C       0.674196   -0.411399    1.279015
C       1.477100    0.616768    2.079821
O       2.071268   -0.102916    3.152507
H       0.444519    2.250594    0.119461
H      -0.808264    1.820137   -1.049774
H      -1.168251    1.743146    0.676727
H      -0.806756   -0.525416   -0.279907
H       1.008050   -0.114229   -1.970784
H       2.210744   -1.879151    1.410853
H      -0.107647   -0.812255    1.932673
H       2.238646    1.078738    1.435251
H       0.812262    1.410049    2.452855
H       2.700253    0.472744    3.596139
