23

C      -0.795599    1.396568   -0.081402
C      -0.029981    0.078888   -0.098939
C       1.257968   -0.009552   -0.967082
C       2.013931   -0.700094    0.204098
C       3.194291    0.091204    0.793618
C       2.523033    1.223318    1.590962
C       1.293855    0.532399    2.213597
O       0.270010    1.402719    2.667305
C       0.779223   -0.443393    1.140173
H      -0.154445    2.241293    0.182540
H      -1.221082    1.589743   -1.073804
H      -1.613590    1.375692    0.643836
H      -0.724173   -0.715465   -0.394850
H       1.174445   -0.588222   -1.890744
H       1.673092    0.971520   -1.223311
H       2.260884   -1.745930    0.011168
H       3.776317   -0.546883    1.469799
H       3.881940    0.457269    0.024157
H       3.182209    1.671443    2.342174
H       2.188571    2.028293    0.926793
H       1.651408   -0.085897    3.055459
H       0.641181    1.962174    3.356539
H       0.321040   -1.315624    1.611235
