15

N      -0.294091   -1.144578    0.293127
C      -0.163683   -0.011969    0.107480
C       0.025650    1.421775   -0.116089
C       1.472718    1.822693   -0.033445
O       1.851049    3.071809   -0.595436
C       2.554187    1.894208   -1.015030
C       3.598317    1.502881    0.091552
N       3.512410    2.511089    1.173148
C       2.509895    1.426598    1.090065
H      -0.367577    1.695256   -1.100609
H      -0.559670    1.974745    0.629748
H       2.590029    1.670601   -2.074178
H       4.460919    0.866578   -0.048836
H       4.185639    2.229668    1.886874
H       2.340481    0.714995    1.886605
