13

O      -0.074063   -0.032644   -0.000295
C      -0.008721    1.158420    0.009085
N       1.192079    1.897909    0.002029
C       1.284330    3.260658    0.012519
C       2.624194    3.568272    0.000176
C       3.243212    4.893116    0.004377
O       4.438282    5.079818   -0.007229
C       3.275594    2.292827   -0.017685
N       2.421767    1.295196   -0.016676
H      -0.877647    1.841339    0.024417
H       0.405172    3.886655    0.027540
H       2.525873    5.742842    0.019540
H       4.339042    2.105005   -0.031055
