20

C      -0.024038    1.591930    0.023580
C      -0.011339    0.053492   -0.007706
C       0.698722   -0.500120   -1.220133
C      -0.001686   -0.816728   -2.388609
N       0.566634   -1.276135   -3.502743
C       1.890649   -1.443960   -3.491207
C       2.708251   -1.174633   -2.391853
C       4.197237   -1.401048   -2.445886
C       2.078352   -0.693243   -1.243362
H       0.994593    1.992904    0.036050
H      -0.528252    1.996574   -0.859542
H      -0.545185    1.960451    0.912660
H       0.470235   -0.323223    0.902179
H      -1.042823   -0.316506    0.008970
H      -1.083516   -0.693698   -2.417379
H       2.333492   -1.820774   -4.411773
H       4.750439   -0.480026   -2.231023
H       4.515297   -2.146417   -1.708211
H       4.507341   -1.755057   -3.432674
H       2.668700   -0.470536   -0.356781
