17

O       0.062111    1.381796   -0.019619
C       0.076680   -0.007359    0.034435
C      -0.416188   -0.748213    1.250268
C      -1.233274   -0.759178   -0.031782
N      -2.417576    0.074493   -0.074824
C      -3.307516   -0.579636   -0.710993
N      -2.997222   -1.893966   -1.169947
C      -1.958639   -1.846830   -2.240034
C      -1.550461   -2.003297   -0.823227
H      -0.866387    1.648407    0.026656
H       0.925332   -0.421698   -0.502593
H       0.079929   -1.671896    1.533426
H      -0.811605   -0.159338    2.070461
H      -4.303543   -0.194093   -0.903934
H      -1.964466   -2.708022   -2.900087
H      -1.784985   -0.888425   -2.721514
H      -1.217663   -2.969850   -0.459006
