18

C       0.081869    1.504678   -0.075549
C       0.252073   -0.009030    0.008410
C       1.032664   -0.455757    1.223656
O       1.482655    0.297519    2.054802
C       1.196256   -1.988946    1.368307
O       0.566679   -2.755765    0.668975
N       2.151770   -2.374818    2.275404
C       2.212079   -2.107244    3.693737
C       2.063381   -3.507401    3.164375
H       1.051817    2.007861   -0.111442
H      -0.482681    1.778166   -0.970838
H      -0.450381    1.888979    0.798739
H      -0.709478   -0.536626    0.023243
H       0.762160   -0.414849   -0.875744
H       3.172193   -1.768021    4.070710
H       1.347360   -1.640104    4.154646
H       1.094298   -3.992540    3.245999
H       2.919092   -4.176025    3.167288
