15

O       0.362982    1.282855    0.136381
C       0.136123   -0.045338   -0.003378
C       0.064380   -0.878166   -1.095753
C      -0.196442   -2.176614   -0.566827
O      -0.373020   -3.283346   -1.359859
C       0.254641   -4.427154   -0.992096
N      -0.036075   -5.510327   -1.567650
C      -0.276179   -2.103580    0.801065
N      -0.061393   -0.771500    1.130223
H       0.472000    1.667455   -0.738486
H       0.186686   -0.616546   -2.133943
H       0.992986   -4.264937   -0.197114
H       0.546425   -6.260655   -1.201699
H      -0.500500   -2.844191    1.548164
H      -0.065994   -0.380802    2.055821
