17

N       0.579934    0.170779   -0.957415
C      -0.089960    0.201554    0.223589
O       0.302423    0.770728    1.226993
C      -1.383657   -0.566194    0.214438
C      -2.440090   -0.238303    1.257942
O      -3.348730   -1.339356    1.220895
C      -2.595909   -2.510947    0.928222
C      -1.487669   -2.042612    0.001287
N      -1.869635   -1.113831   -1.063007
H       1.417512    0.720658   -1.048313
H       0.112036   -0.190114   -1.773746
H      -1.954272   -0.127003    2.235738
H      -3.015401    0.667363    1.043794
H      -2.154051   -2.952829    1.835659
H      -3.279208   -3.241086    0.482045
H      -0.627318   -2.675164   -0.189237
H      -2.884396   -1.029662   -1.112486
