16

C      -0.013193    1.377789    0.064014
N      -0.029744   -0.065799    0.017909
N      -0.024317   -0.740456   -1.139983
C       0.074221   -2.002149   -0.740680
C       0.086784   -3.403630   -1.260196
C       0.341888   -4.174117    0.088845
O       0.202139   -3.243383    1.211796
C       0.129946   -2.024488    0.646144
N       0.073061   -0.806509    1.149644
H       0.991038    1.754016    0.286618
H      -0.331495    1.741893   -0.912280
H      -0.701727    1.722427    0.837994
H      -0.865503   -3.694540   -1.716544
H       0.877575   -3.610758   -1.986448
H      -0.368213   -4.986085    0.254772
H       1.357929   -4.577727    0.127123
