19

C       0.088215    1.549382   -0.070542
C      -0.025799    0.029388   -0.075625
O      -1.404477   -0.290019   -0.193226
C       0.777615   -0.583516   -1.214895
C       2.082928   -1.266525   -0.947098
C       0.860033   -2.102208   -1.287121
O       0.170227   -2.799082   -0.284077
C       0.794914   -2.722859   -2.638758
O       1.346232   -2.283564   -3.618771
H       1.132266    1.861177    0.024932
H      -0.316960    1.961772   -0.999761
H      -0.482854    1.963889    0.764140
H       0.370191   -0.362900    0.873497
H      -1.470095   -1.247837   -0.101890
H       0.667139   -0.101769   -2.182320
H       2.859217   -1.229004   -1.702984
H       2.419592   -1.315026    0.083888
H       0.744167   -3.477322    0.086563
H       0.171217   -3.644226   -2.670440
