14

C       0.071813    1.472009   -0.034616
C       1.337998    0.680545    0.004046
N      -0.007133    0.013204   -0.024963
C      -0.227710   -0.604152   -1.368467
C       1.015374   -0.268205   -2.143553
N       1.540833   -0.472105   -3.310187
O       2.799780    0.100017   -3.223986
N       3.030216    0.660224   -1.976941
C       1.932491    0.438892   -1.323154
H      -0.280934    1.953312    0.872891
H      -0.155513    2.007191   -0.954950
H       1.923511    0.589995    0.911164
H      -0.343888   -1.684956   -1.242463
H      -1.146762   -0.216883   -1.817247
