19

C       0.741796    1.468023   -0.341209
C       0.143611    0.099445    0.008408
C       0.254571   -0.953205   -1.129338
C       1.320843   -1.939905   -0.683724
C       2.633213   -1.418411   -0.228289
N       1.604974   -1.791959    0.759354
C       0.787537   -0.654703    1.235348
C       1.551622    0.210282    2.137267
N       2.143815    0.908251    2.842611
H       1.787913    1.408772   -0.653963
H       0.177398    1.914368   -1.166173
H       0.691537    2.152168    0.510034
H      -0.910434    0.264505    0.248855
H      -0.693834   -1.483955   -1.259720
H       0.494133   -0.483312   -2.088329
H       1.250742   -2.961682   -1.045623
H       3.502094   -2.069179   -0.223845
H       2.862641   -0.368236   -0.374481
H      -0.020697   -1.098148    1.828174
