15

O      -0.717255    1.119339    0.872524
C       0.120507    0.904636    0.034052
C       1.361726    1.730383   -0.114799
C       1.853808    2.655182    1.014237
C       2.052816    3.810999   -0.011751
C       1.512707    2.894289   -1.155622
C       2.583225    1.987352   -1.748459
O       3.339213    1.993805   -2.662188
O       2.437993    1.004338   -0.785092
H       0.022309    0.088595   -0.713362
H       1.059127    2.845240    1.737408
H       2.742568    2.290944    1.530941
H       1.405160    4.668941    0.171197
H       3.073226    4.168186   -0.158559
H       0.729612    3.261022   -1.815749
