16

N       0.119241   -1.111895    0.027916
C       0.037834    0.040334    0.009087
C      -0.104475    1.487088   -0.015541
C      -1.022699    2.113043    1.038718
C      -1.053030    3.607609    0.611272
C      -0.544819    3.602819   -0.831907
C       0.809842    2.969218   -1.073171
O       1.190378    2.174656    0.058255
C      -0.429037    2.187369   -1.363713
H      -2.015129    1.653520    0.986827
H      -0.622921    1.960126    2.043755
H      -2.064589    4.017198    0.668411
H      -0.412451    4.215632    1.255443
H      -0.843674    4.384367   -1.521572
H       1.598847    3.363443   -1.700911
H      -0.850936    1.753418   -2.257983
