19

C       0.012360    1.507899    0.122146
C      -0.128809   -0.003209    0.129852
O       0.863197   -0.538307    1.008595
C       0.835480   -1.893122    1.117288
C       1.226719   -3.049729    0.120754
C       0.246186   -3.970649    0.833800
C       1.688356   -3.880620    1.310348
C       1.300960   -2.728754    2.283813
C      -0.159282   -2.826833    1.808260
H       1.006993    1.800016   -0.226305
H      -0.733660    1.955615   -0.541266
H      -0.130151    1.912042    1.128422
H      -1.126540   -0.308986    0.475764
H       0.010705   -0.414916   -0.880532
H       1.573176   -3.070762   -0.904006
H      -0.303926   -4.814328    0.437872
H       2.457347   -4.640815    1.355098
H       1.682663   -2.413894    3.245269
H      -1.064469   -2.612523    2.359899
