15

C       0.004740    1.467344    0.014810
C      -0.025889   -0.031202   -0.013058
C      -1.217599   -0.970834   -0.208499
N      -0.357238   -2.108345    0.328631
C       0.568169   -1.029507    0.909398
C       1.211789   -0.878379   -0.465502
C       0.635678   -2.211949   -0.786550
O       0.853857   -3.117520   -1.525150
H       0.971282    1.841612    0.366332
H      -0.175582    1.885731   -0.980935
H      -0.768260    1.853175    0.688413
H      -2.034277   -0.760860    0.487760
H      -1.615001   -1.144999   -1.214661
H       1.010520   -1.041570    1.894126
H       2.147620   -0.414515   -0.747453
