17

C       0.002738    1.515122    0.038909
C       0.046200    0.015663    0.062765
N       0.878142   -0.724417   -0.951787
C       0.813820   -1.861131   -0.010958
C      -0.686167   -2.142580    0.442969
N      -0.283888   -1.768867    1.837934
C       0.718769   -0.897661    1.186326
C      -1.257893   -0.803061   -0.047369
O      -2.356318   -0.479775   -0.408122
H       1.011372    1.934114   -0.007543
H      -0.564506    1.871570   -0.827408
H      -0.495584    1.897862    0.935744
H       0.412449   -0.868846   -1.850101
H       1.506638   -2.693000   -0.117250
H      -1.236981   -3.067209    0.286935
H      -1.012639   -1.283954    2.365246
H       1.550749   -0.501188    1.766084
