20

C      -0.164438    1.509231   -0.111968
C       0.007911    0.036502    0.037702
C       0.522472   -1.029866   -0.856338
C       1.353363   -1.659477    0.259621
C       0.379347   -0.941343    1.232961
C      -0.955227   -1.637140    0.915638
C      -2.195901   -1.143690    1.641652
O      -3.365798   -1.517417    0.941049
N      -0.934181   -1.013577   -0.454493
H       0.784017    2.035273    0.043784
H      -0.521638    1.740456   -1.120460
H      -0.891741    1.907399    0.603809
H       0.721021   -0.996826   -1.919993
H       1.423940   -2.750389    0.327755
H       2.354758   -1.221609    0.282876
H       0.683424   -0.678440    2.245144
H      -0.950194   -2.734392    0.894212
H      -2.257539   -1.596141    2.637538
H      -2.138680   -0.050525    1.778710
H      -3.199550   -1.282612    0.018598
