23

C       0.767923    1.325142   -0.796706
C       0.713747   -0.172754   -0.487347
C       0.658012   -0.468721    1.016837
C       0.550035   -1.949217    1.323777
C       1.789852   -2.809123    1.298844
C       1.094515   -2.508205    2.611880
O       1.667888   -1.619749    3.526597
O      -0.579025   -2.606723    0.807580
C      -1.801267   -2.253689    1.428044
H       1.650196    1.793101   -0.345292
H       0.808951    1.508892   -1.875025
H      -0.114354    1.844029   -0.404808
H      -0.158961   -0.624318   -0.972668
H       1.590232   -0.672367   -0.919275
H       1.545972   -0.076036    1.521560
H      -0.193069    0.061993    1.464659
H       1.696835   -3.809772    0.892770
H       2.733761   -2.308832    1.108557
H       0.522334   -3.324748    3.052481
H       2.457745   -2.034966    3.888572
H      -1.753333   -2.376348    2.519253
H      -2.098645   -1.219131    1.208752
H      -2.563503   -2.926202    1.027009
