17

N       0.017165    1.375388   -0.340723
C      -0.060580    0.006876   -0.122558
C      -1.069844   -0.902307   -0.232334
C      -0.464011   -2.182471    0.034671
C       0.853069   -1.950859    0.281742
O       1.106628   -0.593324    0.192209
N      -1.158654   -3.399807    0.105363
C      -1.648703   -4.003616   -1.133846
C      -0.508490   -4.606491   -0.386316
H       0.740233    1.813167    0.216261
H      -0.868643    1.843407   -0.208469
H      -2.104356   -0.709084   -0.464432
H       1.686035   -2.567893    0.566082
H      -2.639286   -4.445016   -1.077293
H      -1.416810   -3.496646   -2.067492
H       0.479797   -4.500844   -0.828577
H      -0.654420   -5.498161    0.216075
