17

N       0.048561    1.445632   -0.045005
C       0.054925   -0.007764   -0.031967
C       0.833099   -0.509855    1.181599
O       0.175857   -0.108755    2.357426
C       0.576652   -1.042302    3.359402
C       0.815203   -2.343865    2.561681
O       0.851339   -1.917121    1.194831
C       2.242854    0.001983    1.192908
N       3.347115    0.338207    1.235016
H      -0.317673    1.793661   -0.922882
H      -0.543758    1.800206    0.698059
H      -0.930692   -0.494961    0.025795
H       0.560727   -0.376490   -0.929070
H       1.492488   -0.701038    3.856865
H      -0.228242   -1.115418    4.092368
H       1.758684   -2.827208    2.834298
H      -0.001374   -3.063705    2.668284
