19

C      -0.013951    1.553384   -0.018118
C       0.027470    0.028229   -0.022973
C       0.579219   -0.541690   -1.335477
O       0.694622   -1.949553   -1.250375
C       1.709421   -2.326463   -0.335514
C       1.562810   -1.662652    1.036408
C       2.176200   -0.322909    1.271127
N       0.726879   -0.464079    1.175035
H       0.987933    1.978881   -0.141619
H      -0.642079    1.927375   -0.832965
H      -0.421692    1.918099    0.928425
H      -0.996519   -0.355808    0.071910
H      -0.114229   -0.330415   -2.155223
H       1.552382   -0.088018   -1.595237
H       1.633264   -3.411851   -0.232454
H       2.698200   -2.099371   -0.768979
H       1.479510   -2.350798    1.875085
H       2.549983   -0.044364    2.253100
H       2.728595    0.113539    0.440346
