16

O       0.442452    0.960763   -1.640016
C       0.061826    1.216934   -0.516555
N       0.889167    1.432430    0.540388
C       2.309515    1.205028    0.439295
C       3.133027    2.173629   -0.416358
C       4.500996    2.072273    0.271670
O       4.213419    1.819215    1.668767
C       2.951429    1.369936    1.817166
O       2.434208    1.166497    2.879512
H      -1.005446    1.319177   -0.241618
H       0.514849    1.474028    1.479007
H       2.505323    0.176069    0.100240
H       3.154160    1.901277   -1.470614
H       2.725798    3.184811   -0.321643
H       5.099516    1.238950   -0.112203
H       5.094789    2.986013    0.222719
