18

C      -0.008843    1.533919   -0.261504
C       1.479554    1.609511    0.263556
C       1.301062    0.169230    0.792162
O       0.590870    0.057004    2.050418
C      -0.330267   -0.787279    1.279848
C       0.564794   -2.029324    1.033806
C       1.585258   -1.255763    0.161258
N       0.677112   -0.929129   -1.006895
C       0.031900    0.004697   -0.018723
H      -0.717726    2.050950    0.387057
H      -0.185370    1.846532   -1.293285
H       2.224659    1.699028   -0.530439
H       1.692200    2.354788    1.031147
H      -1.314268   -0.905004    1.734156
H       0.960899   -2.395900    1.982046
H       0.097701   -2.830343    0.459071
H       2.555809   -1.708898   -0.040988
H       1.188409   -0.354020   -1.675946
