19

C      -0.104960    1.559799    0.166579
C      -0.018413    0.036121    0.170594
C       0.989221   -0.733270   -0.763250
C       2.136141   -0.503693    0.299460
C       2.958377    0.784988    0.457298
O       4.166291    0.518129    1.156949
C       0.862706   -0.809002    1.177053
C       0.645319   -1.926669    0.143922
O       0.365926   -3.083061    0.081055
H       0.830861    2.064985   -0.066531
H      -0.832016    1.869960   -0.591254
H      -0.465408    1.932574    1.131544
H      -1.039957   -0.354607    0.106154
H       1.065460   -0.690560   -1.848335
H       2.875462   -1.312104    0.296650
H       3.268014    1.154057   -0.526320
H       2.402291    1.583780    0.956116
H       3.939014    0.293467    2.065036
H       0.785833   -0.852293    2.262628
