21

C       0.063828    1.601945    0.024050
C       0.002725    0.074416    0.104660
C      -1.397327   -0.488502   -0.173847
C      -1.457674   -2.009994   -0.112897
C      -1.460312   -2.715108    1.267517
C      -2.994722   -2.489311    1.467457
O      -3.287419   -3.887237    1.761850
C      -2.270905   -3.928087    0.716299
C      -2.837872   -2.708577   -0.073088
H       1.073221    1.973754    0.225819
H      -0.229792    1.957763   -0.969910
H      -0.612665    2.064228    0.751677
H       0.713819   -0.360146   -0.610354
H       0.334164   -0.254501    1.098097
H      -2.110667   -0.058345    0.542567
H      -1.728263   -0.155177   -1.167448
H      -0.757144   -2.452471   -0.832732
H      -0.700925   -2.745797    2.049205
H      -3.531416   -1.721033    2.022144
H      -1.923239   -4.895598    0.355083
H      -3.638377   -2.726776   -0.813334
