17

C      -0.103284    1.254093   -0.408264
N      -0.017443   -0.024640    0.279970
C      -1.087465   -1.024622    0.262660
C      -1.069082   -1.842153   -0.997758
O      -0.818214   -1.239979   -2.231890
C      -0.004807   -2.121102    0.033471
O       0.184040   -3.386690    0.522340
C       0.986383   -0.986622    0.041637
N       2.244758   -0.978834   -0.077213
H       0.869848    1.751207   -0.352386
H      -0.390843    1.141227   -1.459999
H      -0.830301    1.894712    0.099320
H      -1.916190   -0.971610    0.957631
H      -1.826589   -2.630161   -1.011452
H      -0.181053   -1.783395   -2.708798
H       0.774033   -3.327618    1.283046
H       2.621784   -0.029874   -0.031678
