13

N      -0.004761    1.370463    0.041654
C      -0.109604   -0.019162    0.045745
C      -1.173029   -0.857086    0.065583
C      -0.666443   -2.202047    0.039761
C       0.691174   -2.080717    0.015866
N       1.734339   -2.998155    0.075619
O       1.062953   -0.780609    0.017148
H       0.539777    1.719689    0.824505
H       0.415409    1.728839   -0.810892
H      -2.205563   -0.546327    0.090252
H      -1.231226   -3.120437    0.042479
H       1.446906   -3.924538   -0.209257
H       2.543558   -2.700896   -0.455803
