14

O      -0.166226    0.067696   -0.407862
C      -0.062467    1.181747   -0.035958
O      -1.117490    2.086438    0.290322
C      -0.142909    2.888497    1.060743
C       0.787323    4.177711    0.942571
N       1.900010    3.097413    1.158924
C       0.960136    2.330600    0.224354
C       0.922973    3.219323   -1.050912
C       0.821332    4.449875   -0.551296
H      -0.184534    2.548825    2.094379
H       0.760923    4.988447    1.669554
H       2.754487    3.377085    0.672433
H       0.958306    2.853662   -2.066350
H       0.746522    5.411768   -1.036436
