10

C       0.033698    1.463487    0.086014
N      -0.055062    0.038738    0.364387
C      -1.099166   -0.587027    0.125648
O      -2.303506   -0.155765   -0.400805
N      -3.141605   -1.268367   -0.459534
N      -2.550770   -2.263030   -0.030744
O      -1.263635   -1.934470    0.359986
H       0.860203    1.636735   -0.610306
H      -0.879609    1.898012   -0.336508
H       0.277040    1.990429    1.013969
