16

C      -0.085479    1.481934    0.066128
C       0.047652   -0.002642    0.060589
O      -1.121509   -0.783244   -0.177828
C      -0.498028   -1.924140    0.517458
C       0.661130   -1.028990    0.985986
C       1.285213   -0.817772   -0.370011
N       1.086205   -2.006035   -1.149971
C       0.035400   -2.763111   -0.657232
O      -0.414181   -3.780847   -1.125562
H       0.880188    1.951171    0.275974
H      -0.431518    1.835437   -0.911208
H      -0.804458    1.809985    0.823117
H      -1.176988   -2.418437    1.207470
H       1.151123   -0.986529    1.949241
H       2.243779   -0.320666   -0.452986
H       1.309251   -2.057704   -2.132097
