19

C       0.357210    1.667799   -0.181194
C      -0.024625    0.212233    0.121449
C       0.212405   -0.678481   -1.115846
C       0.691787   -0.324137    1.330061
C       1.830677    0.091220    1.941497
O       2.125849   -0.668257    3.005135
N       1.148298   -1.662461    3.130119
C       0.305706   -1.442243    2.145606
N      -0.856849   -2.187829    2.017941
H       1.418285    1.749781   -0.443049
H      -0.219622    2.048645   -1.029416
H       0.168551    2.315761    0.679516
H      -1.100259    0.186524    0.346411
H       1.268832   -0.662572   -1.403782
H      -0.057393   -1.723445   -0.929219
H      -0.379999   -0.327227   -1.967060
H       2.515126    0.902028    1.744599
H      -0.850946   -3.015860    2.599358
H      -1.106380   -2.408169    1.064321
