20

C      -0.036424    1.524610   -0.164470
C      -0.007867    0.015202    0.116049
C      -1.372377   -0.597132    0.062936
C      -2.117971   -1.057751   -1.158390
C      -1.923195   -2.010331    0.012182
C      -1.275330   -3.359334   -0.091050
C      -2.840035   -1.544414    1.139467
O      -2.319561   -0.191017    1.067174
H       0.965902    1.956486   -0.088814
H      -0.421621    1.729932   -1.168331
H      -0.683416    2.035629    0.554192
H       0.632672   -0.493322   -0.614413
H       0.427708   -0.168476    1.105967
H      -3.095724   -0.638810   -1.383959
H      -1.504458   -1.285839   -2.025612
H      -0.459101   -3.351060   -0.820694
H      -0.859520   -3.679851    0.871106
H      -1.992493   -4.123741   -0.414796
H      -3.923674   -1.584970    0.972029
H      -2.600759   -1.997197    2.110028
