19

C      -0.216189    1.505622   -0.024868
C       0.053008    0.006340    0.081760
C       1.098145   -0.557231   -0.994332
N       2.246076   -1.170484   -0.224725
C       1.521332   -1.829630    0.927172
C       2.347448   -1.220796    2.087262
N       1.160727   -0.497103    2.736203
C       0.896778   -0.450514    1.251187
C       2.390720   -0.206852    0.928236
H       0.713773    2.079934    0.044011
H      -0.690915    1.751286   -0.980562
H      -0.879849    1.848182    0.775364
H      -0.890134   -0.547144    0.017508
H       0.651390   -1.318692   -1.639119
H       1.481345    0.248591   -1.627493
H       1.025577   -2.799844    0.851572
H       3.154930   -1.640878    2.686094
H       0.542688   -1.182408    3.181255
H       2.919546    0.743582    0.864829
