19

C      -0.294702    1.528106    0.025932
C      -0.029510    0.047696   -0.019942
C      -0.259528   -0.683265   -1.112569
C      -0.015290   -2.160826   -1.259012
O       0.682253   -2.446239   -2.472214
C       0.726213   -2.764339   -0.086004
O       2.027177   -2.197817    0.139219
C       1.006926   -1.972713    1.118219
C       0.501197   -0.557915    1.257540
H       0.626285    2.086327    0.237958
H      -0.705994    1.893591   -0.918242
H      -1.001932    1.780441    0.826802
H      -0.643756   -0.206176   -2.011405
H      -0.975410   -2.684067   -1.366128
H       1.565725   -2.073239   -2.360631
H       0.699642   -3.851558   -0.022239
H       1.177122   -2.503401    2.055479
H       1.308874    0.071517    1.657767
H      -0.285012   -0.542714    2.027122
