18

C      -0.827820   -0.424150   -1.122847
C      -1.088155    0.934366   -0.574904
N      -0.095239    0.050929    0.045310
C      -0.413968   -0.507735    1.312437
C      -0.349379   -1.955067    1.665885
C      -1.649510   -1.206685    1.915976
C      -1.517098   -0.268230    3.153969
O      -0.226052   -0.440634    3.763427
C      -0.341885    0.386778    2.597737
H      -1.604181   -1.171808   -0.973598
H      -0.235375   -0.554213   -2.023398
H      -0.686788    1.814369   -1.067900
H      -2.030785    1.081705   -0.052414
H      -0.394056   -2.622545    0.810315
H       0.254225   -2.305918    2.494214
H      -2.591706   -1.501258    1.473359
H      -2.319653    0.106684    3.777278
H       0.026983    1.404283    2.648990
