19

C      -0.681198    1.380089   -0.163538
C      -0.075888   -0.018721   -0.072066
C       1.092181   -0.312668   -1.053748
O       1.898973    0.799919   -1.359942
C       1.861270   -1.448597   -0.329542
O       1.306990   -1.597634    0.991233
C       0.507725   -0.447916    1.281981
C       1.467090    0.521405    1.976861
O       2.162523    1.336281    1.413087
H       0.064675    2.156606    0.011084
H      -1.104192    1.545288   -1.158448
H      -1.488195    1.504866    0.566488
H      -0.858588   -0.758323   -0.283089
H       0.701117   -0.656546   -2.015292
H       2.193517    1.182249   -0.517978
H       1.763662   -2.420775   -0.822636
H       2.924719   -1.187282   -0.276290
H      -0.258008   -0.760599    2.000301
H       1.569748    0.367640    3.071528
