15

C      -0.032484    1.422860    0.052167
O      -0.024064   -0.007244    0.022584
C      -1.207054   -0.631422    0.003083
N      -2.331425    0.089755    0.011853
C      -3.463717   -0.610818   -0.008963
N      -3.595424   -1.932107   -0.037116
C      -2.449248   -2.625247   -0.045182
O      -2.544744   -3.963371   -0.073499
C      -1.199029   -2.026228   -0.025845
H       1.018065    1.715314    0.063867
H      -0.532137    1.830598   -0.830214
H      -0.541653    1.793809    0.945280
H      -4.386185   -0.034471   -0.002057
H      -3.491843   -4.163348   -0.082880
H      -0.281067   -2.596484   -0.032626
