18

C       0.331281    1.740767    0.237371
C       0.559328    0.246365    0.007313
C       0.900236   -0.520248    1.286787
O      -0.224760   -0.495161    2.185647
C      -0.064102    0.032770    3.419160
O      -0.935281    0.032222    4.233779
C       1.306650   -1.967704    0.963311
N       0.525743   -2.931474    1.508313
O       2.274508   -2.178997    0.258906
H       1.221719    2.218946    0.660786
H       0.102410    2.243943   -0.706116
H      -0.506088    1.917337    0.919037
H      -0.331465   -0.209946   -0.440299
H       1.388356    0.077535   -0.685728
H       1.765301   -0.054628    1.777204
H       0.946204    0.456095    3.574700
H      -0.307431   -2.695929    2.019347
H       0.723968   -3.892152    1.282396
