18

O      -0.189792    1.326985   -0.403622
C      -0.090776   -0.046420   -0.176626
C      -0.324420   -0.586250    1.216134
C      -1.366770   -0.773619    0.143303
C      -2.688395   -0.024276    0.160794
O      -3.452363   -0.586642   -0.920907
C      -2.931951   -1.785408   -1.320374
N      -3.410580   -2.506640   -2.238694
C      -1.703672   -2.109436   -0.492698
H       0.574348    1.755705   -0.004607
H       0.628434   -0.567354   -0.809505
H       0.241888   -1.450342    1.548846
H      -0.535619    0.146477    1.989661
H      -3.238741   -0.180235    1.097626
H      -2.570574    1.045778   -0.016947
H      -4.248230   -2.073434   -2.631615
H      -0.912594   -2.530451   -1.115333
H      -1.966456   -2.861428    0.261730
