21

C       0.029226    1.502333    0.039778
C       0.044629    0.008352   -0.032199
C      -0.000672   -0.755349   -1.131947
C      -0.025674   -2.209346   -0.821610
C       0.014424   -2.284574    0.708813
C       0.090516   -0.848835    1.223997
C      -1.206424   -2.763342   -0.021375
C      -2.557819   -2.094638    0.050059
O      -1.276796   -4.170241    0.002468
H       0.902592    1.882166    0.586160
H       0.028826    1.953797   -0.956221
H      -0.854280    1.871203    0.577260
H      -0.039655   -0.369360   -2.145471
H       0.513483   -2.920430   -1.439104
H       0.591099   -3.058170    1.201217
H       1.016767   -0.674646    1.789130
H      -0.731299   -0.601537    1.910618
H      -2.482361   -1.007989   -0.012301
H      -3.191822   -2.429481   -0.780925
H      -3.063432   -2.362172    0.983778
H      -1.737258   -4.452360   -0.796086
