18

C      -0.002621    1.524592    0.219125
C       0.005091    0.020733    0.000478
C       0.755574   -0.586751   -1.250338
C       1.236042   -1.786469   -0.339944
N       2.596321   -2.183697   -0.123875
C       3.058850   -1.726636    1.122500
O       4.111693   -2.036195    1.632011
C       2.026220   -0.746947    1.599016
C       0.966592   -0.840077    0.791177
H       1.014134    1.928081    0.182878
H      -0.598355    2.027260   -0.549623
H      -0.432882    1.778749    1.193298
H      -1.014828   -0.379492    0.036502
H       0.147786   -0.843780   -2.120502
H       1.598644    0.041971   -1.543130
H       0.548807   -2.634921   -0.429788
H       2.990646   -3.033771   -0.495923
H       2.239593   -0.031510    2.380328
