16

N      -0.187698    1.395605    0.086820
C      -0.057106    0.151596   -0.098036
O       1.143396   -0.419456   -0.367902
C       1.239802   -1.803330   -0.738179
C       0.004757   -2.338030   -1.399041
C      -1.186230   -1.849261   -1.078675
C      -1.275555   -0.765396   -0.019357
C      -1.386317   -1.362242    1.315891
C      -1.469323   -1.870869    2.401451
H       0.717854    1.861591   -0.001040
H       2.104686   -1.860949   -1.405546
H       1.478741   -2.389225    0.161527
H       0.128163   -3.139085   -2.120537
H      -2.107798   -2.212555   -1.518986
H      -2.141424   -0.120037   -0.188821
H      -1.549578   -2.306068    3.366791
