18

C       0.081593    1.477286   -0.368420
C       1.309757    0.652464   -0.016207
C       2.156295    0.999674    1.145619
C       2.014165    0.705855    2.437913
C       0.955667   -0.073732    3.166199
C      -0.371140   -0.402269    2.541521
C      -0.778830   -0.363876    1.273109
C      -0.052945    0.019405    0.042983
H      -0.229321    2.214902    0.362723
H      -0.090722    1.751379   -1.403994
H       1.896234    0.357029   -0.884121
H       3.032344    1.589344    0.875816
H       2.790290    1.077753    3.105790
H       1.409365   -1.017529    3.517176
H       0.747169    0.462814    4.104633
H      -1.105864   -0.732256    3.275024
H      -1.810808   -0.660602    1.086183
H      -0.266218   -0.647560   -0.790194
