21

C       0.657334    1.139221    0.231742
O       0.654753   -0.261948    0.034158
C       0.446688   -0.642460   -1.306585
O       1.464478   -0.146860   -2.157535
C       2.718467   -0.840747   -2.182916
C       2.827596   -1.991443   -1.174244
C       1.622843   -2.905015   -1.322222
C       0.612446   -3.042727   -0.215206
C       0.311323   -2.152855   -1.392603
H       1.458922    1.627430   -0.333882
H      -0.302708    1.584873   -0.070685
H       0.806433    1.310463    1.300176
H      -0.459708   -0.147247   -1.683828
H       2.857470   -1.231671   -3.200595
H       3.505144   -0.097516   -2.005024
H       3.763074   -2.530235   -1.354842
H       2.875889   -1.583747   -0.161070
H       1.744235   -3.747363   -1.996356
H       0.060428   -3.973641   -0.146166
H       0.819858   -2.561577    0.732505
H      -0.433238   -2.485401   -2.106981
