13

O       0.007991    0.012141    0.279693
C       0.002490    1.176453   -0.025363
O      -1.184157    1.820604   -0.197017
C      -1.175559    3.104236   -0.838487
C      -0.121406    4.040564   -0.259419
C       1.196899    3.323271   -0.209910
C       1.234808    1.989891   -0.155687
H      -0.992498    2.960325   -1.911484
H      -2.186405    3.497354   -0.712358
H      -0.056804    4.941415   -0.879894
H      -0.404765    4.376349    0.748016
H       2.113439    3.906963   -0.201117
H       2.157936    1.425027   -0.106975
