20

C      -0.023713    1.469973    0.085847
N       0.018307    0.019158   -0.030634
C      -1.256071   -0.687017   -0.131026
C      -1.441592   -1.514960   -1.408211
O      -0.792968   -2.766589   -1.383027
C       0.620070   -2.702833   -1.378560
C       1.221879   -2.138662   -0.081417
C       1.234122   -0.615883    0.032095
O       2.284791   -0.008011    0.160879
H       1.001720    1.831368    0.143705
H      -0.519869    1.916824   -0.783954
H      -0.566905    1.776911    0.988465
H      -1.420107   -1.340252    0.736736
H      -2.040499    0.074263   -0.105973
H      -2.506173   -1.741657   -1.528201
H      -1.115305   -0.918985   -2.276852
H       0.952615   -3.737296   -1.503359
H       0.984060   -2.126000   -2.244442
H       0.690149   -2.584823    0.768112
H       2.269920   -2.437113   -0.011625
