19

C      -0.888903    1.789443    0.562823
C      -0.253258    0.453757    0.162515
C       0.836353   -0.007010    1.136550
N      -1.280830   -0.601124   -0.050999
C      -2.049746   -1.000138    1.009733
O      -2.928555   -1.845119    1.013356
C      -1.384482   -1.134844   -1.386547
N      -2.329888   -2.082065   -1.549157
O      -0.654051   -0.728562   -2.268714
H      -0.121707    2.569301    0.584549
H      -1.655228    2.086613   -0.158396
H      -1.347655    1.752874    1.556748
H       0.194932    0.568680   -0.823918
H       1.269735   -0.957397    0.813046
H       1.637246    0.737727    1.170900
H       0.459144   -0.130582    2.157397
H      -1.790424   -0.454978    1.930799
H      -2.894382   -2.380388   -0.763193
H      -2.414601   -2.478264   -2.468731
