21

C      -0.002477    1.560544   -0.191937
C       0.013653    0.060735   -0.012261
C      -1.110035   -0.670987   -0.096266
C      -1.224089   -2.172340   -0.077454
C      -1.287555   -2.841963    1.316841
O      -0.037645   -3.065505    1.927096
C       0.695513   -1.887912    2.264038
C       1.635242   -1.421067    1.179308
C       1.332504   -0.544346    0.213666
H       0.656622    1.860821   -1.016700
H      -1.007949    1.929055   -0.411326
H       0.365724    2.075797    0.703398
H      -2.045182   -0.131871   -0.243043
H      -2.139258   -2.453290   -0.611599
H      -0.384295   -2.630468   -0.611038
H      -1.943935   -2.255791    1.981086
H      -1.724571   -3.839661    1.208502
H       0.001482   -1.080799    2.536336
H       1.275944   -2.152201    3.154332
H       2.647403   -1.816990    1.221421
H       2.130863   -0.210567   -0.450107
