19

C      -0.105954    1.519119    0.011576
C       0.102290    0.029021    0.006194
C       0.452626   -0.665401   -1.299281
O       0.947741   -1.950424   -0.949806
C       1.464087   -1.912862    0.373271
C       0.751483   -0.771645    1.079699
C       1.318476   -0.237665    2.367010
N      -0.714326   -0.864288    0.865403
H       0.735126    2.038010   -0.461237
H      -1.013561    1.787646   -0.541378
H      -0.212903    1.908385    1.028742
H      -0.410503   -0.810565   -1.957999
H       1.211279   -0.073293   -1.839372
H       1.275815   -2.890344    0.830497
H       2.551807   -1.726602    0.377325
H       2.380553    0.008668    2.259636
H       0.794838    0.665509    2.695146
H       1.230266   -0.979717    3.169003
H      -1.176429   -0.292021    1.571679
