17

O       0.175002    1.398189    0.053164
C       0.044415    0.006016    0.053125
C      -1.416659   -0.560211    0.052303
C      -1.628759   -2.032107    0.493419
O      -1.573173   -2.513754   -0.886744
C      -1.187894   -1.232237   -1.317476
C      -1.396283   -0.535399   -2.645721
O      -0.172229    0.228659   -2.405516
C       0.261658   -0.661734   -1.337330
H      -0.050432    1.680668   -0.845455
H       0.675489   -0.395625    0.853005
H      -2.227618    0.137620    0.259691
H      -0.826940   -2.467156    1.102412
H      -2.597691   -2.258795    0.946419
H      -1.284886   -1.184049   -3.523958
H      -2.274321    0.107719   -2.764132
H       1.183563   -1.193429   -1.583815
