24

C      -0.059655    1.178061   -0.652535
C      -0.129949   -0.253715   -0.114159
C      -1.544990   -0.698046    0.265526
C      -2.458538   -1.017891   -0.943195
N      -2.099793   -2.440978   -0.798633
C      -3.111328   -3.440694   -1.051725
C      -1.654469   -2.220888    0.589146
O      -2.187427    0.181345    1.165000
C      -1.608286    0.258740    2.450148
H       0.970782    1.452707   -0.897221
H      -0.657832    1.292694   -1.562550
H      -0.439938    1.894678    0.080594
H       0.244147   -0.962981   -0.860812
H       0.528747   -0.356464    0.757631
H      -3.506694   -0.795480   -0.689995
H      -2.215833   -0.576429   -1.915878
H      -3.391566   -3.425583   -2.110638
H      -2.714990   -4.436445   -0.824627
H      -4.030563   -3.293389   -0.452500
H      -0.747939   -2.767079    0.874434
H      -2.443619   -2.402744    1.337451
H      -0.615882    0.730468    2.440156
H      -2.276240    0.871178    3.060872
H      -1.515529   -0.732316    2.918779
