15

N      -0.063334    1.324927    0.055047
C      -0.016209    0.090937   -0.169559
O       1.108489   -0.599575   -0.587465
C       0.777048   -1.944780   -0.924642
C       1.779647   -2.898387   -0.289708
O       2.008502   -3.993742   -0.725744
C      -0.641726   -2.122489   -0.387754
C      -0.883188   -1.796986    1.037808
N      -1.129114   -0.785894   -0.022811
H       0.843196    1.755065   -0.125437
H       0.795531   -2.081571   -2.011545
H       2.264032   -2.500277    0.628615
H      -1.316003   -2.767788   -0.938097
H      -1.783584   -2.154381    1.524634
H      -0.033418   -1.635975    1.694842
