19

C       0.025538    1.316581   -0.342780
O      -0.044250    0.049120    0.286648
C      -1.288520   -0.563005    0.184562
C      -2.389242   -0.180906    1.123659
C      -3.102964   -1.244723    1.506975
C      -2.565499   -2.534595    0.920702
C      -1.405329   -2.080231    0.037824
C      -1.742596   -1.171631   -1.127443
O      -3.031694   -1.045550   -1.640602
H       1.056068    1.664733   -0.242539
H      -0.232963    1.253229   -1.408687
H      -0.641375    2.050157    0.132677
H      -2.573093    0.845421    1.420158
H      -3.978055   -1.215668    2.147014
H      -2.245231   -3.229866    1.705947
H      -3.331230   -3.056673    0.331653
H      -0.511594   -2.688060   -0.037854
H      -1.007518   -1.152257   -1.926342
H      -3.599322   -0.734362   -0.923448
