14

C       0.006185    1.465439    0.005109
N       0.001459    0.015838    0.018616
C      -0.063764   -0.813425   -1.066658
N      -0.049049   -2.079779   -0.735215
C       0.030496   -2.088974    0.648098
C       0.062282   -0.794317    1.123575
C       0.070226   -3.281397    1.410223
C       0.104757   -4.287435    2.070623
H       0.924751    1.856470    0.452633
H      -0.051455    1.808899   -1.029268
H      -0.852586    1.863275    0.553927
H      -0.120300   -0.422497   -2.072500
H       0.121017   -0.398169    2.123537
H       0.134749   -5.179442    2.645178
