15

C       0.032812    1.466244    0.009127
C       1.280801    0.668552    0.024322
C       1.992625    0.396638    1.370116
C       0.919323   -0.343164    2.114200
C       0.534390   -0.942352    3.262317
O      -0.703420   -1.468660    3.108645
N      -1.176937   -1.212640    1.808319
C      -0.196809   -0.550915    1.259531
N      -0.053439   -0.018101   -0.042085
H      -0.284085    1.948803    0.930154
H      -0.284309    1.961655   -0.902872
H       1.872564    0.604008   -0.882419
H       2.885747   -0.216461    1.208121
H       2.318533    1.321356    1.857660
H       0.977848   -1.093497    4.234292
