16

C       0.034000   -1.170434    0.044337
C       0.008146    0.030255    0.002471
C      -0.054678    1.473339   -0.025616
C      -1.011711    2.115269    0.994226
O      -1.038059    3.496322    0.629344
C      -0.626460    3.576082   -0.719056
C       0.784972    3.107925   -1.041497
N       1.271734    2.194671   -0.004577
C      -0.416867    2.233733   -1.339668
H       0.070606   -2.231445    0.073755
H      -2.014341    1.667146    0.931488
H      -0.644872    2.028989    2.022145
H      -1.071490    4.396806   -1.268558
H       1.465946    3.619977   -1.712365
H       1.444262    2.657150    0.888940
H      -0.828700    1.823164   -2.249695
