15

C       0.229036    1.497015    0.060132
C      -0.062378    0.046775   -0.030546
C      -1.164579   -0.710327   -0.229297
N      -0.835528   -2.066142   -0.218237
C       0.437484   -2.058728   -0.015137
N       1.340843   -3.098624    0.097078
C       1.083636   -4.455926    0.014775
O       0.012892   -4.966868   -0.171337
O       1.001543   -0.831014    0.112218
H       0.936533    1.818146   -0.712935
H      -0.696710    2.062043   -0.070075
H       0.658576    1.764922    1.032262
H      -2.181385   -0.384181   -0.381393
H       2.296058   -2.816485    0.257848
H       2.025746   -5.023748    0.147546
