19

C      -0.126079    1.544344    0.120358
C       0.051166    0.055631   -0.072421
C       0.610771   -0.653500   -1.242017
N       1.317331   -0.690781    0.109987
C       2.419705    0.136311   -0.486970
C       1.808307    0.035362   -1.922190
C       2.588567   -0.929034   -2.828341
C       1.545035    1.283368   -2.637681
N       1.352186    2.272748   -3.204950
H       0.581958    2.156896   -0.437827
H      -1.128815    1.833644   -0.209341
H      -0.039396    1.795385    1.183069
H      -0.746798   -0.517149    0.398835
H       0.142759   -1.536164   -1.669400
H       2.524673    1.136715   -0.061824
H       3.372188   -0.390020   -0.404992
H       2.773377   -1.865672   -2.295201
H       2.023534   -1.152149   -3.737921
H       3.549006   -0.494820   -3.119652
