17

C      -0.072826    1.581585    0.157594
C       0.005424    0.079661   -0.002106
C       0.571220   -0.595873   -1.218917
C       1.121406    0.188880   -2.401985
C       1.892117   -0.666332   -3.305814
N       2.482700   -1.358348   -4.017512
C       1.334515   -0.671962    0.102482
C       2.549062    0.076138    0.260331
N       3.516884    0.700078    0.377080
H       0.815930    2.090230   -0.222454
H      -0.946944    1.979039   -0.368395
H      -0.169871    1.846094    1.214764
H      -0.820446   -0.454399    0.459406
H       0.098471   -1.529259   -1.506992
H       0.297334    0.635636   -2.970647
H       1.764581    1.010055   -2.071922
H       1.334772   -1.626401    0.616991
