17

C      -0.359971   -1.147770   -0.402300
C      -0.202997    0.027733   -0.200792
C      -0.072484    1.441858   -0.007157
C       0.481057    2.048445    1.246751
C       1.030588    1.274641    2.425897
C       2.064514    0.202417    2.026415
N       2.868096    0.487555    0.844577
C       2.425073    1.289608   -0.028243
N       1.268003    2.122316    0.017796
H      -0.486367   -2.187806   -0.577247
H      -0.812641    2.029500   -0.545989
H       0.042858    3.009904    1.511228
H       1.510862    2.008068    3.083674
H       0.216615    0.824081    3.004323
H       2.747305    0.020285    2.862794
H       1.558736   -0.749318    1.831268
H       2.995225    1.432979   -0.946341
