16

C      -0.023385    1.557621    0.118947
C       0.017554    0.060776    0.050502
C      -0.898238   -0.888014    0.769253
C       0.588734   -0.963364    1.026841
C       1.323040   -1.658888   -0.152016
O       0.381415   -2.082717   -1.138795
C       0.763661   -0.698489   -1.114535
C       1.309808   -0.106562   -2.291502
N       1.745996    0.422397   -3.223547
H       0.961617    1.996822   -0.073133
H      -0.720251    1.968914   -0.620284
H      -0.351365    1.887349    1.109209
H      -1.465626   -0.429963    1.573469
H      -1.405319   -1.688639    0.246071
H       1.042553   -0.792729    1.993488
H       2.290150   -2.145827   -0.138023
