23

C       0.125258    1.465568   -0.109672
C       0.038443   -0.041556   -0.084674
C       0.418461   -0.955274   -1.300136
C      -0.367598   -1.986288   -0.463547
O       0.478550   -2.160495    0.689378
C       0.826463   -0.791474    0.999836
C      -1.339556   -0.841973   -0.027379
C      -2.037780   -1.011845    1.323245
C      -2.374820   -0.396530   -1.065261
H       1.160494    1.798963   -0.247373
H      -0.469692    1.888124   -0.925447
H      -0.237969    1.900860    0.828781
H      -0.045385   -0.667835   -2.240978
H       1.478995   -1.171164   -1.452021
H      -0.695033   -2.960499   -0.826600
H       1.910692   -0.646986    0.913376
H       0.520420   -0.542261    2.022218
H      -1.426817   -1.568161    2.034806
H      -2.289071   -0.038246    1.760858
H      -2.978464   -1.559590    1.197712
H      -3.137026   -1.172801   -1.197446
H      -2.892893    0.503778   -0.715009
H      -1.961826   -0.169875   -2.049423
