15

O      -0.026165    1.316350   -0.081289
N       0.037482   -0.063835   -0.027621
C      -1.103490   -0.632825    0.045129
C      -1.233941   -2.110265    0.051393
C      -1.987292   -2.764048    1.209518
C      -2.715095   -2.388722   -0.052970
N      -3.355171   -1.104863   -0.076134
C      -2.498782   -0.029991    0.083792
O      -2.831749    1.119523    0.248292
H       0.904776    1.559738   -0.140519
H      -0.502295   -2.700962   -0.482895
H      -1.770014   -3.813065    1.379062
H      -2.181526   -2.182313    2.104046
H      -3.112318   -3.143344   -0.721999
H      -4.330888   -0.982008    0.148540
