16

C      -0.136247    1.622015   -0.082377
C       0.032831    0.098344   -0.009496
C       0.909608   -0.454119   -1.173059
O       1.676903   -1.512537   -0.603578
C       1.679563   -1.398296    0.759400
O       2.294525   -2.122348    1.487019
N       0.888014   -0.314130    1.105209
C      -1.280188   -0.561932    0.041246
C      -2.356909   -1.092512    0.100450
H       0.844510    2.103916   -0.071841
H      -0.668044    1.901349   -0.996544
H      -0.718111    1.985573    0.768429
H       0.315130   -0.847830   -1.997597
H       1.585287    0.326706   -1.540169
H       0.520744   -0.317772    2.044908
H      -3.303819   -1.571827    0.150956
