18

N      -0.100687    1.320399    0.160309
C       0.040354   -0.063467    0.037301
N      -1.038574   -0.852096   -0.010805
N      -0.508501   -2.094243   -0.075616
C      -1.156673   -3.386727   -0.011991
C       0.019302   -4.327140   -0.381879
C       1.320889   -3.534796   -0.042800
C       0.839550   -2.116346   -0.057097
C       1.255804   -0.800993    0.012041
H       0.572201    1.839181   -0.387819
H      -1.041911    1.614533   -0.068178
H      -1.546359   -3.577954    0.996520
H      -1.992488   -3.445997   -0.714371
H      -0.039047   -5.282423    0.143138
H      -0.009570   -4.536236   -1.454675
H       1.707732   -3.806903    0.947170
H       2.120375   -3.733317   -0.761975
H       2.262521   -0.417876    0.044510
