15

O      -0.004187    1.405520   -0.005980
C      -0.010528   -0.006231   -0.048042
C      -1.407993   -0.539946    0.045528
O      -2.352619   -0.143156   -1.002553
C      -3.114914   -0.972181   -0.085065
C      -1.959368   -2.010596    0.165167
C      -2.128625   -1.812017    1.667785
O      -2.047441   -2.445139    2.675724
C      -2.458264   -0.395417    1.216497
H      -0.604923    1.711181   -0.695806
H       0.455949   -0.393937   -0.967210
H       0.576128   -0.361834    0.805316
H      -4.165600   -1.166491   -0.287407
H      -1.696195   -2.864489   -0.453130
H      -2.726824    0.515294    1.743411
