23

C      -0.104301    1.382493    0.090120
C      -0.312377   -0.059395   -0.338651
O      -1.301526   -0.637945    0.503719
C      -1.544610   -1.977802    0.223591
C      -2.821124   -2.563986    0.757531
C      -2.630253   -2.381679   -0.741370
C      -3.433395   -1.328583   -1.470555
O      -2.310699   -3.530484   -1.478907
C      -3.403639   -4.394397   -1.722921
H       0.661906    1.857253   -0.530002
H      -1.032731    1.952287   -0.009504
H       0.214996    1.429525    1.135097
H      -0.630053   -0.114382   -1.390667
H       0.626585   -0.629699   -0.253156
H      -0.661538   -2.618458    0.227883
H      -2.780269   -3.567921    1.164623
H      -3.497476   -1.883984    1.264302
H      -3.433033   -0.396965   -0.900264
H      -2.995262   -1.134894   -2.455282
H      -4.474340   -1.636271   -1.615990
H      -3.000821   -5.284731   -2.211950
H      -3.901687   -4.693540   -0.789403
H      -4.153899   -3.940469   -2.385385
