19

C      -0.317881    1.299485   -0.192134
C       1.094794    1.102558    0.300310
C       0.228182   -0.092270   -0.008113
C      -0.262310   -0.968650    1.113240
O      -0.566348   -0.229262    2.327395
C      -1.896158   -0.789655    2.426028
C      -1.702775   -1.492963    1.089850
C      -2.618658   -1.763809   -0.012496
O      -2.079515   -2.819407    0.805306
H      -1.042221    1.651076    0.533758
H      -0.471503    1.661880   -1.202420
H       1.917356    1.325435   -0.369768
H       1.284445    1.317763    1.345473
H       0.474081   -0.650241   -0.908187
H       0.459666   -1.772676    1.318708
H      -1.998263   -1.471558    3.279520
H      -2.668807   -0.013875    2.478470
H      -3.684985   -1.578693    0.110313
H      -2.255685   -1.737445   -1.038600
