20

C      -0.297482    1.585417    0.059635
C      -0.008457    0.094130   -0.011831
C       0.765113   -0.514503   -1.212910
C       1.972765    0.236543   -1.823501
C       2.849254   -0.454485   -0.722584
C       3.186669    0.407827    0.460014
C       2.208101    0.363670    1.363660
C       1.103611   -0.546206    0.905893
N       1.671369   -1.290629   -0.279185
H       0.617143    2.181637   -0.007303
H      -0.962003    1.893752   -0.755226
H      -0.791935    1.842883    1.002991
H      -0.945018   -0.458835    0.115208
H       0.161996   -1.091789   -1.919609
H       2.202846   -0.092927   -2.839743
H       1.952213    1.328362   -1.805876
H       3.694174   -1.038189   -1.101672
H       4.092065    1.000484    0.523610
H       2.176546    0.913962    2.296893
H       0.717865   -1.193365    1.700741
