18

C       0.004735    1.520424   -0.017648
C       0.010161    0.011806   -0.003514
C      -0.004501   -0.703405   -1.201782
C      -0.000078   -2.095692   -1.229956
C       0.019557   -2.772129   -0.022630
F       0.024306   -4.111801   -0.017200
C       0.034524   -2.095233    1.188156
C       0.030012   -0.700290    1.212186
C       0.046528    0.026316    2.533804
H       0.888781    1.936613    0.480355
H      -0.009859    1.902453   -1.041467
H      -0.869049    1.930486    0.503072
H      -0.019808   -0.158072   -2.140662
H      -0.011480   -2.649599   -2.161010
H       0.049659   -2.667016    2.109713
H       0.925671    0.675056    2.626549
H      -0.831751    0.672371    2.650101
H       0.058867   -0.675515    3.371051
