16

C      -0.021272    1.517257    0.321519
C      -0.023334    0.046304    0.038267
C      -1.161083   -0.654794   -0.174385
C      -1.242078   -2.054536   -0.530781
N      -0.432388   -3.023666   -0.258004
C       0.699912   -2.812079    0.508628
N       1.492962   -1.809753    0.587152
C       1.306410   -0.609522   -0.108257
N       2.231081   -0.002147   -0.741084
H       0.587051    2.030612   -0.428684
H      -1.031757    1.931489    0.330904
H       0.451601    1.714980    1.290891
H      -2.106091   -0.116427   -0.180043
H      -2.140849   -2.341416   -1.083055
H       0.965096   -3.686987    1.104598
H       3.083215   -0.568088   -0.724242
