17

C      -0.338920    1.459269   -0.028247
C       0.050653   -0.009880   -0.066767
C       1.351207   -0.386810   -0.808068
O       1.944909   -0.925230    0.395869
C       0.767897   -0.638673    1.182933
C       1.091150    0.238887    2.386424
C       0.123931   -1.888755    1.629420
N      -0.401102   -2.859416    1.973299
H       0.504840    2.102837    0.236978
H      -0.695160    1.773631   -1.014833
H      -1.146973    1.641660    0.687132
H      -0.803958   -0.612927   -0.378653
H       1.253679   -1.148260   -1.589357
H       1.932189    0.457766   -1.197289
H       1.580373    1.158919    2.061248
H       0.183743    0.489543    2.943560
H       1.770450   -0.296280    3.055191
