19

C      -0.107526    1.598198   -0.016936
C       0.021661    0.106165    0.309091
C      -1.299491   -0.620845    0.154702
O      -1.861457   -0.594211   -1.200320
C      -2.134927   -1.984958   -1.123688
C      -0.871008   -2.809161   -1.070933
C       0.341960   -2.484187   -1.765014
C       1.353674   -2.276044   -2.381900
C      -1.423981   -2.145564    0.195168
H       0.852228    2.109957    0.098664
H      -0.445440    1.736378   -1.047908
H      -0.831548    2.090232    0.642460
H       0.773094   -0.358893   -0.332481
H       0.352777   -0.028666    1.347532
H      -2.048733   -0.182999    0.830222
H      -3.082574   -2.344813   -1.508606
H      -1.092715   -3.875542   -1.054392
H       2.244910   -2.072834   -2.921874
H      -1.671349   -2.734352    1.068267
