11

N      -0.007934    1.321541    0.007578
C       0.007292   -0.022602    0.000963
N      -1.181487   -0.660298    0.004020
C      -1.081212   -1.980548   -0.002944
N       0.045936   -2.700477   -0.012325
C       1.129515   -1.939610   -0.014262
F       2.277572   -2.580366   -0.023301
N       1.210841   -0.628180   -0.008266
H       0.859289    1.828194    0.005578
H      -0.888508    1.804264    0.014566
H      -2.012876   -2.542000   -0.000858
