19

C      -0.035238    1.507878    0.060631
C       0.008959    0.005731   -0.008254
C      -0.011759   -0.654832   -1.177131
C       0.001374   -2.127709   -1.270640
O       1.198373   -2.833096   -0.845296
C       0.034706   -2.927861   -0.028903
C       0.057383   -2.230569    1.298835
C       1.290749   -1.486522    1.722798
C       0.060602   -0.706053    1.291288
H       0.855420    1.904843    0.563521
H      -0.096312    1.956353   -0.934257
H      -0.900023    1.848602    0.644314
H      -0.056507   -0.097392   -2.108794
H      -0.442784   -2.560290   -2.165721
H      -0.438652   -3.909203   -0.032638
H      -0.533393   -2.710501    2.071373
H       1.545667   -1.475260    2.776477
H       2.126848   -1.513739    1.034805
H      -0.476108   -0.213241    2.097842
