18

C       0.015814    1.536196   -0.005606
C       1.307341    0.764714   -0.001869
C      -0.013395    0.020911   -0.004579
C      -0.467875   -0.761096    1.180675
C      -1.031960   -1.919056    0.820409
C      -1.095155   -2.057021   -0.664836
C      -1.944723   -1.021157   -1.379218
C      -0.465806   -0.780603   -1.206085
H      -0.277550    2.051093    0.903392
H      -0.280686    2.040749   -0.919027
H       1.892276    0.741389   -0.916115
H       1.899669    0.750549    0.907033
H      -0.360870   -0.393123    2.195259
H      -1.434428   -2.661266    1.499829
H      -0.946717   -3.024195   -1.132735
H      -2.286849   -1.261141   -2.380830
H      -2.642809   -0.441300   -0.784287
H       0.163958   -0.795977   -2.088625
