18

C      -0.062201    1.391690   -0.060577
N      -0.015826   -0.043057    0.130650
C      -1.193882   -0.869498    0.073058
C      -1.424533   -1.606875   -1.223743
C      -0.732035   -2.299269   -0.070192
C       0.779884   -2.268067   -0.013318
O       1.417713   -2.911436   -1.094371
C       1.128073   -0.766054   -0.041717
O       2.244812   -0.335271   -0.262434
H       0.966471    1.753950   -0.099047
H      -0.569831    1.649108   -0.998577
H      -0.589793    1.878750    0.766293
H      -2.014873   -0.578749    0.718770
H      -2.432995   -1.933709   -1.452125
H      -0.827340   -1.323294   -2.083721
H      -1.256595   -3.093688    0.444443
H       1.121310   -2.687667    0.947346
H       2.263230   -2.451616   -1.201497
