18

C      -0.379410    1.407830   -0.018640
N      -0.075673   -0.007250   -0.011457
N       0.305836   -0.655111   -1.103976
C       0.526659   -1.896857   -0.669727
C       0.264856   -1.953509    0.713063
N      -0.115246   -0.731283    1.103974
C       0.346146   -3.071999    1.668638
C      -0.016852   -4.481722    1.244636
C       1.416651   -4.135999    1.526183
H       0.414174    1.974407    0.477548
H      -0.460755    1.721590   -1.058309
H      -1.321962    1.581026    0.504195
H       0.848025   -2.668466   -1.351130
H       0.078293   -2.785659    2.679249
H      -0.551887   -5.100032    1.956727
H      -0.316126   -4.628906    0.212542
H       2.097538   -4.046913    0.686581
H       1.874271   -4.514968    2.433152
