17

C      -0.022781    1.473915    0.096109
C       0.013974   -0.007850    0.017645
C       0.008156   -0.854845   -1.032244
C      -0.040346   -0.628613   -2.415272
C      -0.083962   -0.468988   -3.610701
C       0.066653   -2.225881   -0.306254
C      -1.020229   -2.041140    0.790750
C       0.070665   -1.003882    1.193779
O       1.072085   -1.966038    0.723460
H       0.863727    1.864448    0.612212
H      -0.065171    1.918864   -0.901161
H      -0.893905    1.822648    0.665925
H      -0.118207   -0.319323   -4.661104
H       0.219449   -3.133451   -0.887106
H      -2.010059   -1.684344    0.498791
H      -1.070052   -2.885605    1.481907
H       0.227117   -0.637048    2.207716
