15

O      -0.086698    1.284966   -0.268104
C      -0.006718   -0.049323   -0.061680
C      -0.257695   -1.012207   -1.174066
C      -1.133098   -1.203832    0.038580
N      -0.393386   -1.757129    1.175134
C       0.597559   -0.729721    1.130548
N       1.558440   -0.377676    1.865961
C      -2.577147   -0.975404    0.081489
O      -3.223860   -0.539835   -0.844986
H      -0.054764    1.729956    0.588433
H      -0.773489   -0.558626   -2.015756
H       0.472112   -1.776899   -1.428867
H      -0.085626   -2.724414    1.127338
H       1.702708   -1.029194    2.639539
H      -3.034706   -1.210043    1.066768
