17

C      -0.100587    1.589224    0.000168
C      -0.005601    0.077138   -0.020817
C       1.254521   -0.627771   -0.615631
N       2.029094   -0.126958    0.594665
C       0.727259   -0.670644    1.144962
C       0.411039   -0.684186    2.550253
N       0.134337   -0.734618    3.672307
C       0.885430   -1.906109    0.172459
O      -0.217131   -2.633023   -0.264741
H       0.849461    2.045544    0.281095
H      -0.390731    1.960639   -0.988507
H      -0.869164    1.913352    0.709608
H      -0.942328   -0.402464   -0.303448
H       1.661077   -0.551854   -1.623197
H       2.792035   -0.777516    0.813811
H       1.740502   -2.544877    0.433667
H      -0.407344   -3.327500    0.374787
