19

O      -0.052412    1.352054    0.087174
C       0.024891   -0.046363   -0.008940
C      -0.496062   -0.662238   -1.285340
C      -1.294440   -0.764971    0.005247
C      -1.275649   -2.019100    0.865339
C      -0.071369   -2.945257    0.595573
C       0.623584   -1.954148    1.546540
C       1.135227   -0.693126    0.828231
O      -0.667914   -1.657666    2.149415
H       0.668176    1.723291   -0.433934
H      -0.872468    0.038864   -2.022431
H      -0.025489   -1.544370   -1.703527
H      -2.182458   -0.147227    0.081659
H      -2.262818   -2.468647    0.991796
H      -0.215885   -3.915838    1.072037
H       0.305924   -3.082456   -0.418411
H       1.344725   -2.334904    2.274577
H       2.028790   -0.926703    0.234160
H       1.422218    0.039381    1.588722
