13

O      -0.093955    0.008164   -0.093865
C      -0.102893    1.193129    0.017860
C      -1.143157    2.277111   -0.123377
N      -0.971028    3.131662    1.105301
C      -0.071921    3.327220   -0.027394
C       1.051697    2.279444    0.125096
C       1.923209    2.321826    1.275059
C       2.654566    2.344001    2.228444
H      -2.081741    2.260427   -0.661534
H      -1.704902    3.838811    1.055932
H      -0.007106    4.262081   -0.567812
H       1.626333    2.192264   -0.806032
H       3.290661    2.363130    3.078448
