22

C      -0.062701    1.489426   -0.184171
C      -0.075884   -0.044726   -0.032381
C       0.812077   -0.498806    1.143204
C      -1.442515   -0.548308    0.114000
C      -2.570218   -0.950166    0.250433
C      -3.927676   -1.469418    0.405397
C      -4.011276   -2.982059    0.262105
C      -5.234358   -3.603702   -0.299452
N      -3.972988   -3.607608   -1.064533
H       0.960679    1.847154   -0.336906
H      -0.670574    1.806053   -1.035814
H      -0.463392    1.968630    0.714560
H       0.343919   -0.474831   -0.952695
H       0.821653   -1.588360    1.230353
H       1.840740   -0.153350    0.997767
H       0.441726   -0.086352    2.086946
H      -4.324686   -1.180852    1.388520
H      -4.592386   -1.004000   -0.336310
H      -3.445088   -3.530291    1.011959
H      -5.564732   -4.579404    0.045317
H      -6.037885   -2.943161   -0.617564
H      -3.999794   -2.888713   -1.784519
