18

O       0.028123    1.373265    0.056710
C       0.052326    0.003233   -0.005974
C       0.814002   -0.796186   -1.034098
N      -0.163334   -1.939640   -0.837026
C       0.391172   -2.899191    0.151915
C       0.610209   -2.108702    1.473337
C      -0.231004   -0.862152    1.214417
O      -0.708624   -0.080704    2.269583
C      -1.054072   -1.044376   -0.049820
H      -0.271957    1.602478    0.947300
H       0.719615   -0.388915   -2.044714
H       1.864887   -1.039836   -0.835882
H      -0.345534   -3.696031    0.295516
H       1.303223   -3.354555   -0.242171
H       0.241125   -2.648361    2.352872
H       1.663172   -1.871942    1.655839
H      -1.461378   -0.523728    2.675822
H      -2.132579   -1.021943   -0.154075
