20

C      -0.207239    1.508391   -0.078249
C       0.018943    0.002128   -0.055254
C       1.265076   -0.486390   -0.841790
N       1.999625   -0.638399    0.438354
C       0.734105   -0.597804    1.219807
C       0.847736    0.219573    2.510548
N       1.889879   -0.373806    3.346130
C       0.207228   -1.941748    1.514045
N      -0.213148   -3.004224    1.693667
H       0.719126    2.060849    0.103548
H      -0.582497    1.805654   -1.063322
H      -0.947351    1.821409    0.665022
H      -0.905767   -0.519605   -0.304807
H       1.088595   -1.426878   -1.377317
H       1.722119    0.234220   -1.528088
H       2.535382   -1.493570    0.540297
H       1.035666    1.267149    2.236888
H      -0.104461    0.180163    3.050918
H       2.795933   -0.169930    2.934903
H       1.884397    0.046080    4.269077
