19

C      -0.228848    1.107157    0.337533
C       0.163863   -0.288144   -0.087932
O       0.538547   -1.117103    0.720528
C       0.054586   -0.643616   -1.574116
O      -0.339491    0.455656   -2.368446
C       1.262651   -1.498962   -2.080422
C       0.408608   -2.792415   -1.904885
O       0.710674   -3.556724   -0.771714
C      -0.859239   -1.891787   -1.790602
H       0.457007    1.843817   -0.097104
H      -1.223408    1.355133   -0.044024
H      -0.197043    1.178907    1.424920
H       0.424588    1.024818   -2.509532
H       1.466227   -1.264375   -3.128597
H       2.185117   -1.459275   -1.497305
H       0.418306   -3.479929   -2.753193
H       0.742662   -2.942397   -0.020278
H      -1.556752   -2.150221   -0.991556
H      -1.395959   -1.779399   -2.735069
