17

C      -0.082338    1.678354   -0.022469
C      -0.011089    0.155305   -0.030142
N       1.136467   -0.435646   -0.774632
C       1.818010   -0.780958    0.389522
N       2.995807   -1.084961    0.731958
C       0.604187   -0.490755    1.267578
O       0.855417    0.363854    2.346523
C      -1.326055   -0.444769   -0.495338
O      -2.230375   -0.738818    0.240263
H       0.859863    2.097778    0.337386
H      -0.287062    2.067251   -1.026156
H      -0.880247    2.010581    0.646709
H       1.568565   -0.036595   -1.598622
H       3.647852   -1.091280   -0.053706
H       0.039057   -1.373996    1.584307
H       1.797608    0.286579    2.543539
H      -1.391492   -0.597536   -1.598161
