15

C      -0.041097    1.577125    0.055023
C       1.472552    1.270835    0.044430
C       1.165253    0.056844    1.033647
C       0.107188    0.035377   -0.094339
O      -0.898756   -0.733984   -0.742979
C      -0.634593   -0.370612   -2.057164
N       0.436421    0.255588   -2.369114
C       1.208824    0.226789   -1.106826
H      -0.463038    1.936915    0.995602
H      -0.434379    2.115829   -0.806512
H       2.294712    1.974772    0.155831
H       1.891470   -0.758391    1.048821
H       0.834448    0.339380    2.034867
H      -1.411959   -0.668179   -2.752145
H       1.987988   -0.539028   -1.186761
