23

C      -0.141799    1.495837   -0.078735
C      -0.084159   -0.036615   -0.037644
C       0.676889   -0.559892    1.158325
O       2.081048   -0.174346    1.127325
C       2.511169   -1.552881    1.219260
C       1.073856   -2.045822    1.421238
C       0.558882   -1.914675    2.879366
C       0.074057   -0.454302    2.594776
C       0.578066    0.652982    3.508475
H       0.868135    1.914626   -0.056688
H      -0.638114    1.845291   -0.988905
H      -0.693795    1.898525    0.776812
H      -1.098489   -0.455644   -0.021571
H       0.399190   -0.411162   -0.948558
H       2.984879   -1.882588    0.284937
H       3.210346   -1.717011    2.049253
H       0.725931   -2.887899    0.823465
H      -0.243319   -2.609281    3.138488
H       1.340991   -1.998065    3.640925
H      -1.019919   -0.422813    2.530650
H       1.670328    0.697674    3.485470
H       0.198419    1.633948    3.203928
H       0.258776    0.477674    4.541770
