23

C       0.088608    1.636599    0.020431
C       0.022210    0.107412    0.022711
C       0.606135   -0.491018   -1.277778
C       0.796342   -2.018992   -1.192725
C      -0.461531   -2.729880   -0.665455
O      -0.403535   -2.625031    0.764331
C       0.848252   -2.021086    1.132900
C       1.772278   -2.338933   -0.046984
C       0.682699   -0.499681    1.279019
H       1.127374    1.986696   -0.014300
H      -0.431524    2.056063   -0.847844
H      -0.372967    2.056141    0.920795
H      -1.035757   -0.180353    0.064195
H      -0.050927   -0.234513   -2.118224
H       1.579057   -0.028832   -1.495071
H       1.114513   -2.422867   -2.157794
H      -1.392545   -2.274591   -1.025215
H      -0.470140   -3.791338   -0.950421
H       1.164216   -2.476583    2.076159
H       2.058136   -3.395580   -0.045176
H       2.679640   -1.729758   -0.064761
H       1.670899   -0.051654    1.453314
H       0.071236   -0.269519    2.158791
