16

N      -0.142631    1.429283   -0.310665
C      -0.044631    0.179586   -0.153754
O      -1.149937   -0.610405    0.082026
C      -2.401833   -0.038207    0.151198
O      -3.357580   -0.718121    0.354696
C       1.198902   -0.671619   -0.184408
C       2.140101   -0.371624   -1.380839
O       3.036808    0.383797   -0.541576
C       2.377145   -0.098337    0.646490
H       0.773098    1.847017   -0.474004
H      -2.380845    1.047238    0.002265
H       0.945963   -1.716251   -0.014017
H       2.620443   -1.266479   -1.795688
H       1.723139    0.232625   -2.192630
H       2.136748    0.709477    1.344790
H       2.966116   -0.867952    1.160685
