22

C       0.363490    1.616665    0.466918
C       0.238702    0.141262    0.175709
C       0.973493   -0.460926   -0.956164
N       1.458101   -0.638734    0.478718
C       1.121748   -2.113254    0.366746
C       0.204393   -2.695479    1.427853
C       0.643690   -1.927126   -1.085214
C      -0.504228   -2.564361   -1.815521
C       0.922242   -2.823519   -2.249648
H       1.356290    1.980883    0.188408
H      -0.386465    2.188830   -0.089780
H       0.221360    1.814820    1.534302
H      -0.725366   -0.295321    0.431564
H       1.537114    0.128145   -1.674820
H       2.078496   -2.646242    0.385777
H      -0.785870   -2.231641    1.426763
H       0.066543   -3.769992    1.263868
H       0.645135   -2.562248    2.421314
H      -1.039163   -3.368686   -1.320251
H      -1.127318   -1.935604   -2.443752
H       1.264468   -2.369299   -3.174451
H       1.349818   -3.802064   -2.051980
