23

C      -0.576124    1.145668    0.333033
C      -0.211273   -0.305683    0.014323
C       0.609735   -0.469711   -1.269049
C       0.981934   -1.932488   -1.533185
C       1.831638   -2.136578   -2.789153
O      -0.157259    0.022225   -2.377700
C       0.425221    1.109966   -3.071077
C      -0.446418    1.514336   -4.168131
C      -1.145716    1.867410   -5.078343
H       0.319220    1.762021    0.475479
H      -1.165156    1.582402   -0.478302
H      -1.169508    1.209861    1.250085
H       0.356352   -0.742760    0.845336
H      -1.126315   -0.901952   -0.088946
H       1.534325    0.123228   -1.179472
H       1.511572   -2.318169   -0.653100
H       0.052860   -2.509586   -1.618526
H       1.301065   -1.779063   -3.676076
H       2.784142   -1.598200   -2.720517
H       2.061958   -3.195464   -2.940548
H       0.583623    1.967425   -2.397132
H       1.413970    0.836477   -3.473717
H      -1.768613    2.174735   -5.881562
