21

C      -0.051918    1.470338    0.087212
C       0.023281   -0.044629   -0.006244
C       0.673346   -0.523975   -1.299718
O       0.704875   -1.941606   -1.377735
C       1.019332   -2.598870   -0.184671
C       2.309173   -2.380973    0.578951
C       0.982890   -1.893208    1.142768
C       0.366800   -2.522803    2.366732
O       0.801379   -0.496038    1.103096
H       0.945544    1.911202   -0.005499
H      -0.689813    1.876432   -0.703425
H      -0.465176    1.765777    1.054902
H      -0.988166   -0.478794    0.052389
H       0.105586   -0.188554   -2.172891
H       1.689259   -0.102883   -1.365886
H       0.636427   -3.613993   -0.225640
H       2.792476   -3.247022    1.019113
H       2.983602   -1.603659    0.238740
H       0.552635   -3.600786    2.389602
H       0.793653   -2.083063    3.274465
H      -0.716397   -2.360480    2.387610
