19

C       0.066105    1.497000    0.083669
C       0.004407   -0.041940    0.001901
C       0.766707   -0.618430    1.192111
O       1.965032   -0.722702    1.228211
C      -1.433124   -0.538704   -0.044909
C      -1.962620   -1.276368   -1.256322
O      -1.033412   -1.506864   -2.285846
C      -1.717956   -2.032139    0.024483
O      -0.638459   -2.915174    0.059091
H       1.105468    1.835091    0.087768
H      -0.444668    1.944583   -0.773898
H      -0.417570    1.866965    0.995024
H       0.546593   -0.351696   -0.895334
H       0.134450   -0.895497    2.066413
H      -2.159822    0.103810    0.445698
H      -2.975997   -1.067145   -1.591594
H      -1.383931   -2.205180   -2.849909
H      -2.554682   -2.389420    0.616323
H      -0.200313   -2.848449   -0.801165
