19

C      -0.064719    1.500279   -0.011629
C       0.071540    0.006291    0.054837
C       1.058782   -0.830073   -0.806290
C       0.628865   -1.932427    0.232879
C       0.586289   -0.790489    1.285869
C      -0.868437   -2.030904   -0.125933
O      -1.195007   -0.633258   -0.228052
C       1.417855   -3.186155    0.389787
O       2.061347   -3.474918    1.368511
H       0.894979    1.982550    0.192619
H      -0.408469    1.810437   -1.003146
H      -0.793679    1.849316    0.726065
H       0.802223   -0.981083   -1.857390
H       2.102643   -0.535309   -0.687864
H       1.582175   -0.495893    1.618288
H      -0.095763   -0.896287    2.132089
H      -1.058125   -2.541994   -1.077674
H      -1.464042   -2.505819    0.662131
H       1.391521   -3.862589   -0.497061
