16

C       0.050991   -1.190263   -0.008933
C       0.053125    0.011857    0.026650
C       0.056462    1.445596    0.072411
C       0.487303    2.245886    1.278425
C       1.602403    1.532412    2.048483
C       2.485337    1.533520    0.758336
C       1.353486    2.257903    0.006589
C       1.525652    3.285560   -0.966135
N       1.676043    4.123058   -1.751511
H       0.041453   -2.251612   -0.048522
H      -0.749197    1.919868   -0.481895
H      -0.143170    3.042733    1.653028
H       2.027373    2.151779    2.839427
H       1.336076    0.555384    2.457747
H       3.373915    2.157137    0.859485
H       2.765293    0.562003    0.346111
