22

C       0.262598    1.636571    0.138588
C       0.105219    0.124817    0.012708
C       1.056727   -0.658887   -0.969713
C       1.974310    0.092583   -1.926244
C       1.651614   -1.436877    0.235174
C       2.784766   -0.742968    1.048958
C       1.736861   -0.231883    2.082414
C       0.594418   -0.779547    1.193630
H       1.293749    1.940737    0.342043
H      -0.048371    2.137976   -0.784475
H      -0.360861    2.026266    0.951273
H      -0.943787   -0.084415   -0.220212
H       0.449126   -1.353112   -1.561161
H       2.600916    0.831518   -1.418242
H       2.643023   -0.602611   -2.446723
H       1.395500    0.625238   -2.689082
H       1.756486   -2.516925    0.114744
H       3.525197   -1.432349    1.461939
H       3.327891    0.039145    0.511967
H       1.801997   -0.764457    3.035241
H       1.731671    0.839516    2.300141
H      -0.190349   -1.348793    1.695156
