19

C       0.137665    1.510546   -0.179838
C      -0.072240    0.015138    0.094502
C       0.665318   -0.475641    1.300953
C       2.139661   -0.816462    1.497523
C       2.040861   -0.438611    3.002499
C       0.557245   -0.081907    2.812048
C       0.979624   -1.492283    3.205437
O       0.747113   -2.219078    4.341970
C       1.073633   -1.892324    1.688250
H       1.196026    1.732370   -0.349306
H      -0.423753    1.832795   -1.062240
H      -0.195941    2.117167    0.668721
H      -1.145382   -0.189741    0.213318
H       0.253353   -0.570479   -0.775513
H       2.961752   -0.790020    0.793008
H       2.750535   -0.030675    3.709047
H      -0.036590    0.649187    3.345424
H      -0.198186   -2.401691    4.399968
H       0.929760   -2.819520    1.147700
