23

O      -0.088997    1.488316    0.036369
C       0.003357    0.078756    0.179155
C      -1.377884   -0.511067   -0.071856
C      -1.411361   -2.036338    0.057835
C      -2.800256   -2.630240   -0.213181
C      -2.852638   -4.139337   -0.069114
O      -2.036367   -4.843997   -0.974123
C      -3.068357   -4.763828    1.289321
C      -4.151552   -4.820976    0.226656
H       0.781966    1.864555    0.192179
H       0.725219   -0.348340   -0.536899
H       0.347974   -0.197625    1.189693
H      -2.082463   -0.056623    0.635675
H      -1.706764   -0.210428   -1.074142
H      -0.689872   -2.473195   -0.646391
H      -1.081733   -2.329308    1.064353
H      -3.528894   -2.181892    0.473489
H      -3.117929   -2.364443   -1.229744
H      -1.122527   -4.743430   -0.687423
H      -2.536395   -5.684727    1.501108
H      -3.217167   -4.115411    2.146514
H      -5.039038   -4.211248    0.356829
H      -4.317991   -5.774677   -0.260306
