18

C       0.037941    1.376608   -0.146135
C       0.092590   -0.127164   -0.029924
O       1.090473   -0.799270   -0.019965
O      -1.154933   -0.646691    0.064806
C      -1.230460   -2.082970    0.167246
C      -2.698264   -2.438296    0.326456
N      -3.491631   -2.002569   -0.807707
C      -4.236161   -2.854263   -1.562957
O      -4.345614   -4.046586   -1.371391
H       1.051607    1.773885   -0.174865
H      -0.496875    1.662647   -1.056663
H      -0.508488    1.801883    0.700142
H      -0.803403   -2.531472   -0.734569
H      -0.645050   -2.419163    1.028042
H      -2.812642   -3.522431    0.394011
H      -3.083012   -1.995101    1.253464
H      -3.450006   -1.029760   -1.065878
H      -4.746980   -2.325296   -2.391599
