20

O      -0.044954    1.437923    0.070128
C       0.034163    0.023631   -0.008901
C      -1.385903   -0.533490    0.009338
C      -1.403548   -2.057415   -0.144429
C      -2.842172   -2.560060   -0.249003
N      -3.665527   -2.015948    0.821837
C      -3.480210   -0.832071    1.487823
O      -4.329862   -0.386772    2.237290
C      -2.132119   -0.146986    1.294024
H       0.847450    1.790600    0.127904
H       0.542724   -0.295184   -0.933540
H       0.602422   -0.393564    0.839831
H      -1.913999   -0.092704   -0.848358
H      -0.852257   -2.372423   -1.037191
H      -0.913781   -2.520994    0.721771
H      -3.252665   -2.283313   -1.232856
H      -2.867482   -3.654055   -0.190675
H      -4.585966   -2.409192    0.958448
H      -1.520127   -0.414043    2.167527
H      -2.297850    0.929167    1.354795
