16

C       0.136752    1.561526   -0.049570
C       0.027598    0.071026   -0.134841
C      -0.941562   -0.738129    0.610471
N       0.498738   -0.839922    1.031256
C       1.113451   -1.701899    0.054877
O       1.760441   -2.687820    0.200015
C       0.753100   -0.794138   -1.164940
C       0.010265   -1.389216   -2.331817
O      -1.144289   -1.158843   -2.589906
H       1.173954    1.890954   -0.168673
H      -0.462063    2.028652   -0.838880
H      -0.228519    1.922651    0.915345
H      -1.538948   -0.241641    1.367906
H      -1.415652   -1.602603    0.156964
H       1.690064   -0.349823   -1.523386
H       0.615496   -2.090653   -2.945780
