20

C      -0.203180    1.468053    0.035641
N       0.046521    0.035717    0.034191
C       0.891905   -0.466866   -1.028227
C       2.408195   -0.342761   -0.605360
C       2.286318   -0.034145    0.897742
C       0.827994   -0.519101    1.161937
C       0.760511   -2.022302    0.800070
C       1.167958   -1.959182   -0.686948
O       2.597646   -1.764886   -0.798850
H       0.701482    2.100263    0.031214
H      -0.793180    1.729517   -0.848857
H      -0.793328    1.731826    0.918991
H       0.597154   -0.190687   -2.038418
H       3.130298    0.252321   -1.167016
H       3.040041   -0.576323    1.473168
H       2.394905    1.034959    1.104841
H       0.411199   -0.250142    2.133725
H       1.447537   -2.652458    1.369262
H      -0.262192   -2.389750    0.919299
H       0.806494   -2.771633   -1.319360
