19

C       0.231400    0.894225   -0.987636
C      -0.179380   -0.278643   -0.117702
C       0.764791   -1.479474   -0.025701
C       0.634081   -0.562322    1.140933
C      -1.628248   -0.648721   -0.004904
O      -2.019205   -1.488307    0.775261
C      -2.647940    0.065209   -0.921255
C      -2.514770   -0.341723   -2.314046
C      -2.396278   -0.705151   -3.453793
H       1.320502    0.996605   -0.988585
H      -0.091926    0.766339   -2.024436
H      -0.180048    1.839549   -0.615347
H       0.296424   -2.453752    0.046858
H       1.660993   -1.434638   -0.634637
H       1.442312    0.127787    1.356421
H       0.076890   -0.920861    1.997961
H      -3.639977   -0.194541   -0.541052
H      -2.525635    1.152089   -0.836338
H      -2.302670   -1.020928   -4.463261
