13

O       0.062424    1.424822    0.016822
C       0.009018    0.063023    0.018429
C       0.036039   -0.840350    1.313908
O      -1.390681   -0.629190    1.563056
C      -1.317829   -0.788754    0.109951
C      -0.309250   -1.953159    0.290289
O       0.645058   -1.981705   -0.784046
C       0.879369   -0.655889   -0.991112
O       1.619165   -0.182774   -1.802952
H       0.688663    1.678707   -0.677601
H       0.723476   -0.833838    2.158681
H      -2.235636   -0.721315   -0.472580
H      -0.621965   -2.943902    0.599425
