18

C      -0.117757    1.575673   -0.033513
C      -0.065147    0.046567   -0.033996
C       0.790569   -0.518559   -1.186106
C       0.865965   -2.013037   -1.202318
C       1.817967   -2.898268   -0.730579
C       1.295409   -4.180284   -1.003173
N       0.109272   -4.116739   -1.600175
N      -0.127841   -2.793130   -1.705864
H       0.884346    2.006516    0.069796
H      -0.546959    1.959547   -0.965882
H      -0.728240    1.950993    0.793252
H       0.340344   -0.317139    0.917210
H      -1.081203   -0.361076   -0.105507
H       0.392705   -0.153900   -2.142969
H       1.808207   -0.120708   -1.108892
H       2.755434   -2.645084   -0.261682
H       1.736342   -5.144184   -0.794233
H      -0.980526   -2.487356   -2.144030
