23

C      -0.335252    1.492528    0.086228
C       0.112878    0.034960   -0.091935
C       0.837413   -0.504642    1.111532
C       0.138761   -1.000581    2.354716
C       1.063833   -1.939227    1.624821
C       0.621387   -3.266428    1.076735
C       2.507037   -1.585603    2.016556
C       2.280230   -0.125684    1.504713
O       3.115806    0.280497    0.441257
H       0.527904    2.143242    0.257207
H      -0.858887    1.856320   -0.803385
H      -1.009512    1.595171    0.942761
H      -0.757106   -0.598623   -0.305993
H       0.764645   -0.030559   -0.972770
H       0.403627   -0.611066    3.336891
H      -0.922095   -1.204285    2.235002
H      -0.403112   -3.217612    0.692843
H       1.269773   -3.601515    0.258393
H       0.643355   -4.042550    1.851872
H       2.781913   -1.722361    3.068607
H       3.256784   -2.087077    1.395211
H       2.370118    0.666894    2.255013
H       3.104393   -0.411454   -0.229320
