20

C      -0.177683    1.566200   -0.228281
C       0.050879    0.067874   -0.123695
C       1.334777   -0.622107   -0.691848
C       2.139515   -0.059483    0.516250
C       0.794346   -0.589079    1.096041
C       0.986579   -1.843954    0.210178
N       0.392687   -0.625024    2.469512
C       0.394588    0.461945    3.288561
O       0.709194    1.585278    2.958044
H      -0.454975    1.832749   -1.254719
H      -0.999470    1.870419    0.427106
H       0.692304    2.159464    0.056006
H      -0.868409   -0.469691   -0.388427
H       1.651464   -0.656018   -1.732556
H       3.032909   -0.621439    0.802346
H       2.314590    1.012799    0.565229
H       0.084397   -2.406411   -0.049461
H       1.816267   -2.503940    0.478067
H       0.103486   -1.509286    2.857716
H       0.071401    0.201847    4.317138
