15

C      -0.057788    1.577807   -0.114380
C       0.006356    0.070477   -0.009877
O      -1.169800   -0.576327   -0.418549
C       1.289210   -0.670338   -0.201621
C       0.633146   -0.634522    1.185029
C       1.296685    0.107242    2.279450
O       1.227048   -0.191851    3.446172
H       0.864585    2.055688    0.224445
H      -0.216225    1.872477   -1.158998
H      -0.891317    1.967224    0.477329
H      -1.265576   -0.440883   -1.368522
H       1.258391   -1.622160   -0.718478
H       2.205035   -0.100823   -0.328951
H       0.109927   -1.529341    1.501679
H       1.905598    0.982062    1.951428
