14

O      -0.064735    1.486330    0.145026
C       0.018325    0.102829    0.034084
C      -1.291687   -0.706141    0.033214
N      -2.003021   -0.222052   -1.147282
C      -0.984302   -1.342151   -1.307553
C      -1.334163   -2.607189   -1.837545
C      -1.595787   -3.683610   -2.307278
C       0.335741   -0.571147   -1.358830
O       1.279547   -0.585354   -2.083965
H      -0.746018    1.769511   -0.479152
H       0.741732   -0.255200    0.773759
H      -1.799551   -1.170370    0.868431
H      -2.918294   -0.669709   -1.192244
H      -1.823539   -4.635685   -2.719556
