15

N      -0.135475    1.299506    0.065813
C      -0.031078    0.037914    0.042148
N       1.101213   -0.770981   -0.043022
C       0.863708   -2.141552   -0.021578
O       1.716832   -2.989513   -0.074047
C      -0.648503   -2.325458    0.087736
C      -1.206396   -0.911465    0.110444
C      -2.480420   -0.491888    0.706250
O      -2.328169   -0.597951   -0.708793
H       0.767690    1.769396   -0.005267
H       2.043834   -0.413257   -0.102386
H      -1.017194   -2.886367   -0.775167
H      -0.877859   -2.905899    0.985333
H      -3.119303   -1.243572    1.168441
H      -2.565854    0.523522    1.086481
