19

C      -0.141615    1.484548    0.004101
C       0.029100   -0.047402    0.001665
C       0.693189   -0.506546   -1.215125
C       1.253238   -0.848116   -2.222001
C       0.806990   -0.515832    1.244287
O       0.130581   -0.078961    2.402283
C       0.348643   -1.076790    3.389238
C       0.348429   -2.358617    2.556513
O       0.884449   -1.932192    1.308846
H       0.833053    1.981287   -0.026809
H      -0.709461    1.803604   -0.872897
H      -0.667744    1.801567    0.906672
H      -0.959462   -0.519211    0.070315
H       1.741029   -1.168739   -3.108834
H       1.834741   -0.114183    1.219833
H       1.314585   -0.926476    3.894122
H      -0.455786   -1.018120    4.125307
H       0.983102   -3.148362    2.969358
H      -0.669163   -2.751196    2.424665
