19

C       0.022750    1.623631    0.306327
C       0.001668    0.125324   -0.048489
C      -1.370085   -0.459138   -0.117705
C      -2.087689   -0.948970   -1.157174
C      -1.762796   -1.093674   -2.602962
N      -3.327590   -1.349552   -0.643287
C      -3.416145   -1.128143    0.724042
O      -4.342305   -1.368226    1.474499
N      -2.182862   -0.565439    1.019905
H       1.050572    1.994921    0.361656
H      -0.515596    2.208593   -0.445134
H      -0.452517    1.812669    1.274280
H       0.495494   -0.028725   -1.012711
H       0.600538   -0.426905    0.689550
H      -1.821048   -2.139959   -2.928988
H      -2.451990   -0.518205   -3.233921
H      -0.751117   -0.738399   -2.809235
H      -4.079611   -1.769367   -1.160322
H      -1.933139   -0.306684    1.957751
