18

O       0.137821    1.340056    0.027640
C       0.080369   -0.061346   -0.056378
C      -1.372195   -0.534126   -0.230265
C      -1.164761   -1.964964   -0.779139
N      -0.593510   -1.293015   -2.018744
C      -1.608305   -0.194910   -1.720435
C       0.622002   -0.686562   -1.409083
C       1.308516    0.271737   -2.349446
O       2.036144    1.167211   -1.985130
H       1.001457    1.616620   -0.310470
H       0.560949   -0.528285    0.815288
H      -2.069619   -0.280297    0.568175
H      -0.477911   -2.645234   -0.265443
H      -2.092599   -2.483580   -1.028184
H      -2.588806   -0.488594   -2.098855
H      -1.341710    0.804430   -2.072216
H       1.352944   -1.481790   -1.209471
H       1.120029    0.078426   -3.426607
