14

C      -0.238632   -0.864724   -1.003246
C      -0.081111    0.071860   -0.266772
C       0.142178    1.215366    0.613045
C       1.468346    1.895057    0.385053
C       2.053668    2.989765    0.993344
C       3.296198    3.136025    0.342144
N       3.479002    2.211569   -0.597436
N       2.354310    1.473561   -0.548244
H      -0.402108   -1.696848   -1.642946
H      -0.670003    1.941174    0.476021
H       0.073818    0.886359    1.658171
H       1.640713    3.589748    1.788360
H       4.062799    3.876076    0.520035
H       2.233564    0.690716   -1.170784
