20

C       0.280651    0.426033   -0.676051
O      -0.157095    0.015934    0.612019
C       0.626018   -0.897875    1.226877
N       0.319348   -1.316701    2.372316
C       1.153653   -2.322442    3.037261
C       0.414166   -3.690955    3.118226
C       1.091440   -4.603684    2.065307
C       2.414558   -3.917370    1.821081
C       2.458354   -2.698460    2.357040
H       0.317405   -0.416223   -1.378306
H      -0.449635    1.153790   -1.032298
H       1.268336    0.902210   -0.634847
H       1.500314   -1.211300    0.641096
H       1.328772   -1.930387    4.046286
H       0.557832   -4.119016    4.114609
H      -0.658215   -3.563172    2.961429
H       1.212734   -5.631264    2.426054
H       0.512287   -4.675299    1.134259
H       3.218808   -4.382979    1.260104
H       3.300849   -2.017240    2.296139
