12

O      -0.145549   -0.089733   -0.001825
C      -0.033267    1.105787    0.003923
C       1.269538    1.892972   -0.000513
C       2.457413    1.060637   -0.015605
C       3.440705    0.373164   -0.027904
C      -1.305455    1.979572    0.017885
O      -1.280154    3.182673    0.023786
C      -2.568104    1.223413    0.023198
N      -3.584868    0.673523    0.027835
H       1.240509    2.574172   -0.862343
H       1.253756    2.561356    0.871694
H       4.311589   -0.234825   -0.038294
