21

O      -0.255349    1.460791    0.285324
C       0.042207    0.065768    0.182212
C       0.519030   -0.486535    1.527866
C       1.119403   -1.897682    1.472732
C       0.157066   -3.035533    1.249884
C      -0.969267   -3.056643    0.533979
C      -1.634698   -1.996305   -0.260967
C      -2.428698   -0.878045    0.406880
C      -1.205220   -0.555991   -0.406502
H       0.546758    1.911255    0.568957
H       0.860444   -0.081995   -0.545433
H       1.295649    0.198346    1.895078
H      -0.294556   -0.444681    2.260134
H       1.902816   -1.922438    0.698195
H       1.648041   -2.082156    2.415225
H       0.439087   -3.966154    1.738753
H      -1.511587   -4.001431    0.510796
H      -2.112143   -2.399204   -1.151257
H      -3.401311   -0.612894    0.007212
H      -2.357040   -0.817926    1.486541
H      -1.417819   -0.131617   -1.384262
