13

C      -0.002830    1.557454    0.011828
O       1.391437    1.881067    0.039489
C       2.043040    0.587343   -0.003481
O       1.197319   -0.179746   -0.827874
C       0.034204   -0.006505    0.002767
C       0.556212   -0.411809    1.375193
C       1.838729   -0.043654    1.372662
H      -0.516232    1.974451    0.883982
H      -0.451600    1.946045   -0.908283
H       3.043035    0.697077   -0.416580
H      -0.833575   -0.515957   -0.409751
H      -0.047508   -0.780335    2.192597
H       2.554356   -0.039368    2.182222
