19

C       0.143619    1.596277    0.026994
C      -0.054601    0.084116   -0.033238
C       0.385671   -0.511288   -1.384831
N       1.138604   -1.762071   -1.276039
C       2.233533   -1.871217   -0.343383
C       0.992983   -2.684663   -0.164689
C       0.727902   -1.976470    1.216494
C       1.951682   -1.140287    1.023431
N       0.630295   -0.541965    1.106687
H       1.204717    1.849032   -0.077454
H      -0.400748    2.089804   -0.785401
H      -0.210917    1.996190    0.980764
H      -1.116691   -0.134550    0.129452
H      -0.479954   -0.695505   -2.029612
H       1.037000    0.189012   -1.920765
H       3.219716   -2.154618   -0.693917
H       0.804664   -3.732859   -0.365565
H       0.350755   -2.480386    2.099482
H       2.716150   -0.843410    1.731755
