16

C      -0.508386    1.694831    0.696629
N      -0.770072    0.276612    0.560424
C       0.238390   -0.506365    0.559751
N       1.562890   -0.205423    0.693001
N      -0.065939   -1.883279    0.455830
C       0.784639   -2.942596    0.301997
O       2.004181   -2.866338    0.253234
C       0.090647   -4.215496    0.199483
C      -0.459307   -5.280441    0.109833
H       0.079248    2.102965   -0.143534
H      -1.457130    2.236693    0.716321
H       0.034151    1.939189    1.624080
H       1.835281    0.747062    0.523395
H       2.225190   -0.944811    0.493008
H      -1.060887   -2.055476    0.445503
H      -0.934726   -6.227961    0.030375
