21

O       0.163772    1.127507   -0.550802
C      -0.034442   -0.211243   -0.142275
C      -1.508971   -0.503047    0.090752
O      -2.171113   -0.234343   -1.130276
C      -3.583826   -0.334388   -1.046533
C      -4.175571    0.069949   -2.369147
C      -4.167815   -0.914069   -3.523988
C      -5.460753   -0.546448   -2.844727
O      -6.083229   -1.463388   -1.989726
H      -0.483683    1.278017   -1.250148
H       0.357139   -0.921799   -0.888090
H       0.525400   -0.356902    0.787513
H      -1.657516   -1.550863    0.400907
H      -1.900188    0.148520    0.889075
H      -3.883648   -1.360540   -0.793405
H      -3.957652    0.321596   -0.243176
H      -4.027741    1.115752   -2.622120
H      -3.974025   -0.549586   -4.526622
H      -3.769471   -1.900720   -3.311116
H      -6.148247    0.104999   -3.384064
H      -6.446656   -2.171970   -2.530636
