20

C       0.167807    1.487743    0.007189
C       0.020292   -0.035943    0.001277
C      -1.442578   -0.490893    0.012620
C      -1.585013   -2.012590    0.006665
C      -3.019796   -2.477456    0.018130
O      -3.997785   -1.781782    0.032247
O      -3.061690   -3.854775    0.010148
C      -4.290927   -4.464315    0.018982
N      -4.325036   -5.721702    0.012044
H       1.220526    1.786101   -0.001092
H      -0.312938    1.934780   -0.869839
H      -0.296652    1.926346    0.897155
H       0.523986   -0.450529   -0.882161
H       0.540172   -0.458905    0.871268
H      -1.953477   -0.084516    0.893262
H      -1.969595   -0.076130   -0.854525
H      -1.100601   -2.459598   -0.870903
H      -1.084224   -2.467780    0.870764
H      -5.117250   -3.753355    0.031896
H      -5.293560   -6.038732    0.020345
