18

O      -0.005298   -0.071099   -0.002994
C      -0.005503    1.144318   -0.003076
N      -1.165856    1.876247    0.030311
C      -1.307389    3.331233   -0.004236
C       0.070872    4.023191    0.048555
C       1.023480    3.245477   -0.884994
C       1.271149    1.999508   -0.009361
C       1.403528    2.634543    1.372487
C       0.727962    3.782894    1.401951
H      -2.004879    1.316032    0.069336
H      -1.826325    3.631065   -0.925918
H      -1.929274    3.658399    0.840188
H      -0.051295    5.078023   -0.210081
H       0.584284    3.013429   -1.860312
H       1.955536    3.796528   -1.037604
H       2.104415    1.365151   -0.310660
H       1.906075    2.150531    2.200531
H       0.576033    4.422119    2.263463
