14

O      -0.121000    1.329384    0.127716
N       0.058514   -0.072126    0.149093
C      -1.075297   -0.674745   -0.022090
C      -2.377292   -0.044257   -0.213561
N      -3.504189   -0.668448   -0.384028
N      -3.464213   -2.004837   -0.383502
C      -2.311241   -2.742967   -0.214466
C      -1.118234   -2.126856   -0.034250
O       0.058358   -2.774587    0.138667
H       0.778651    1.641538    0.262873
H      -2.431768    1.035225   -0.217423
H      -4.352959   -2.454094   -0.517489
H      -2.429847   -3.819825   -0.236412
H      -0.090953   -3.726295    0.111616
