13

N      -0.032296   -1.184779   -0.158793
C      -0.012156   -0.033260   -0.068252
C      -0.007500    1.427055    0.034181
C      -0.622961    1.945963    1.334048
C       0.193931    2.786974    1.967528
C       1.495659    2.901003    1.242881
O       2.200803    1.640170    1.159523
C       1.405017    2.037213    0.054927
H      -0.559331    1.819500   -0.831365
H      -1.596875    1.612749    1.669369
H      -0.021330    3.299567    2.896197
H       2.125866    3.782181    1.301614
H       1.928133    2.213797   -0.879809
