16

O       0.011889   -0.075639    0.070344
C      -0.026725    1.140978    0.021765
N      -1.182032    1.866158   -0.003030
C      -1.151950    3.291560   -0.060431
C      -0.110050    4.102481    0.669783
C      -0.115521    4.040998   -0.860791
C       1.246854    3.310031   -0.822639
C       1.252209    3.370380    0.680685
C       1.180861    2.015564   -0.017543
H      -2.055169    1.363793    0.019896
H      -2.142943    3.732172   -0.074560
H      -0.359375    4.922710    1.330217
H      -0.369804    4.805681   -1.583087
H       2.050622    3.487683   -1.523603
H       2.060891    3.603436    1.359412
H       2.107522    1.453132    0.001728
