17

C      -0.170012    1.332544   -0.167320
O       0.009911   -0.060379   -0.058362
C       0.533307   -0.639274   -1.227041
C       0.607671   -2.136472   -1.035790
O      -0.738236   -2.655019   -1.059231
C      -0.870728   -3.940671   -0.750008
O       0.017878   -4.704164   -0.461191
C      -2.330116   -4.409011   -0.798431
O      -3.256782   -3.725686   -1.129530
H       0.780812    1.853164   -0.363625
H      -0.876161    1.590191   -0.971743
H      -0.574891    1.683201    0.784513
H      -0.094636   -0.406867   -2.102686
H       1.549190   -0.261636   -1.437473
H       1.184541   -2.606346   -1.838651
H       1.074125   -2.386628   -0.079421
H      -2.419358   -5.471649   -0.495644
