14

C       0.009536    1.447592    0.088673
C       1.486584    1.919394   -0.088942
C       2.212059    0.611066    0.030526
N       3.441629    0.213753    0.193885
O       3.359485   -1.179624    0.178390
C       2.059760   -1.566078   -0.003747
C       1.289929   -0.456774   -0.101817
N      -0.004398    0.017681   -0.331321
H      -0.282706    1.552436    1.143212
H      -0.690368    2.027395   -0.517855
H       1.643135    2.355100   -1.082016
H       1.774762    2.666079    0.653301
H       1.890423   -2.629442   -0.021244
H      -0.759477   -0.520928    0.070468
