20

C      -0.644395    1.261118   -0.477588
C       0.350070    0.236329    0.097529
C       1.148552   -0.428458   -0.925869
C       1.789904   -0.970824   -1.787799
C       2.591741   -1.609945   -2.815928
O       1.888991   -2.747527   -3.336938
C       2.516044   -3.390197   -4.344204
N       2.010079   -4.416121   -4.864516
C       2.740237   -5.045002   -5.944343
H      -0.119032    2.047915   -1.025614
H      -1.343177    0.778797   -1.166047
H      -1.218968    1.726751    0.328466
H       1.020849    0.731784    0.811098
H      -0.193576   -0.522582    0.674369
H       2.803341   -0.900667   -3.629280
H       3.557911   -1.930743   -2.400142
H       3.474316   -2.939063   -4.650827
H       2.115880   -5.071018   -6.844821
H       3.689622   -4.543877   -6.197064
H       2.961206   -6.085910   -5.681722
