15

C      -0.026831    1.523693   -0.010829
C      -0.035057    0.021096   -0.017333
N      -0.113250   -0.702842    1.041682
O      -0.188937    0.081111    2.188937
C       0.048988   -0.734201   -1.282919
N       0.129050   -0.038959   -2.371412
O       0.203469   -0.825532   -3.502072
C       0.039346   -2.160585   -1.263381
C       0.034095   -3.362664   -1.288112
H       0.047065    1.918658   -1.021537
H      -0.938393    1.896820    0.466225
H       0.812511    1.886662    0.590405
H      -0.241422   -0.581565    2.886560
H       0.256605   -0.171240   -4.208448
H       0.028438   -4.424717   -1.295423
