18

O       0.061338    0.113130    0.836411
C      -0.019654    1.111746    0.172985
C      -1.385453    1.775286   -0.102972
N      -1.718212    2.337854   -1.404761
C      -0.732668    3.192079   -2.054031
C       0.547487    2.442865   -2.549355
C       1.203125    2.776533   -1.187842
C       0.176379    3.927181   -1.032199
O       1.129740    1.710278   -0.235861
H      -2.122136    1.007945    0.138790
H      -1.493973    2.551220    0.666217
H      -1.993491    1.596141   -2.038886
H      -1.242268    3.814340   -2.795037
H       0.449313    1.383019   -2.800047
H       1.047493    2.964569   -3.370464
H       2.259063    3.047011   -1.185070
H       0.583182    4.843252   -1.467055
H      -0.209247    4.158806   -0.038872
