17

C      -0.142072    1.428046   -0.031098
N       0.030346   -0.015354   -0.038633
C       0.034964   -0.728645    1.221650
C      -1.347266   -0.781114    1.911093
C      -1.311391   -1.675977    3.130617
O      -1.506801   -1.307456    4.258960
C       0.210465   -0.670398   -1.224372
O       0.219085   -0.155159   -2.321036
H       0.597849    1.898106    0.627231
H      -0.001863    1.782146   -1.052353
H      -1.142925    1.714149    0.311203
H       0.385239   -1.748941    1.028784
H       0.760511   -0.263247    1.901764
H      -1.681552    0.212555    2.218415
H      -2.073180   -1.196165    1.199370
H      -1.070287   -2.742820    2.910351
H       0.355907   -1.758242   -1.070404
