16

C      -0.103436    1.562461   -0.021156
C       0.055904    0.060757    0.037646
C       1.351560   -0.703588   -0.209063
C       2.625690    0.061625   -0.072834
C       2.824656    0.501828    1.178286
C       1.706885    0.055370    2.058492
O       1.597764    0.236694    3.249683
C       0.736512   -0.700409    1.170546
H       0.795641    2.091119    0.300987
H      -0.336761    1.882103   -1.042544
H      -0.928415    1.880861    0.624447
H      -0.815546   -0.472140   -0.338390
H       1.320877   -1.572272   -0.856997
H       3.274014    0.259440   -0.919603
H       3.639397    1.116446    1.538330
H       0.224619   -1.554040    1.596757
