21

C       0.169302    1.591330    0.168952
C       0.089993    0.062731    0.090285
C       0.606204   -0.519272   -1.226595
C       0.649176   -2.053926   -1.298539
C       0.844140   -2.317487   -2.792310
N      -0.004883   -1.300475   -3.427634
C      -0.189348   -0.157520   -2.523064
C      -1.630959    0.057583   -2.268414
N      -2.755339    0.238988   -2.069627
H       1.194668    1.944702    0.010738
H      -0.471807    2.066238   -0.580353
H      -0.157877    1.948557    1.149694
H       0.681839   -0.373953    0.904153
H      -0.944227   -0.262783    0.251230
H       1.625792   -0.146373   -1.394635
H       1.446623   -2.480389   -0.685445
H      -0.304234   -2.473825   -0.957745
H       1.908672   -2.210972   -3.057129
H       0.528181   -3.322352   -3.091882
H       0.304889   -1.024627   -4.347869
H       0.191497    0.777337   -2.951574
