18

O      -0.723018    0.900397   -0.620913
C       0.110211    1.014560    0.241438
C       1.354360    1.871946    0.126328
C       1.463917    2.609118   -1.218802
N       2.641294    3.470637   -1.315650
C       2.718548    4.456932   -0.233000
C       2.591545    3.836476    1.158396
O       3.357531    4.073991    2.061677
C       1.416665    2.873181    1.309635
H       0.003039    0.484849    1.216956
H       2.211110    1.186575    0.232901
H       1.481471    1.890737   -2.042359
H       0.569088    3.226416   -1.365619
H       3.483623    2.903005   -1.310622
H       3.660543    5.006933   -0.290755
H       1.899082    5.178735   -0.366516
H       0.496700    3.476058    1.311659
H       1.491717    2.371418    2.277895
