18

C      -0.055914    1.504299    0.200357
C       1.435696    1.933661    0.162560
C       2.154844    0.614340    0.494512
C       3.470676    0.302912   -0.158708
C       3.749081   -0.962291   -0.459514
C       2.771046   -2.065178   -0.166815
O       1.390920   -1.667767   -0.170102
C       1.089014   -0.379586    0.051543
N      -0.088103    0.068322   -0.109579
H      -0.499445    1.677615    1.191176
H      -0.668843    2.055744   -0.519123
H       1.706733    2.257631   -0.848185
H       1.674676    2.745516    0.853603
H       2.270508    0.523475    1.587607
H       4.168767    1.109163   -0.364270
H       4.692738   -1.255834   -0.908864
H       2.842010   -2.857349   -0.918692
H       2.992458   -2.528663    0.806924
