23

C      -0.237534    1.579979   -0.070444
C       0.027147    0.083197    0.002568
C       0.990922   -0.590708   -1.013327
C       1.376747   -1.598821    0.101085
C       2.804959   -2.104637    0.247783
O       3.708982   -1.092839    0.660482
C       3.302549   -0.502331    1.884112
C       2.027739    0.319261    1.687742
C       0.876980   -0.554622    1.153666
H       0.687755    2.164055   -0.074660
H      -0.781597    1.826984   -0.989060
H      -0.845918    1.922180    0.774642
H      -0.932423   -0.447060   -0.029401
H       0.567437   -0.986999   -1.940063
H       1.833477    0.062341   -1.263363
H       0.697022   -2.457538    0.073036
H       2.828317   -2.934403    0.976702
H       3.187871   -2.488342   -0.704364
H       3.153450   -1.283242    2.650705
H       4.131972    0.132617    2.210071
H       1.739647    0.806662    2.626024
H       2.271522    1.117917    0.980059
H       0.307313   -0.968216    1.991655
