23

C       0.084500    1.341978    0.094320
O       0.004086   -0.063519    0.045229
C      -1.324815   -0.546810   -0.081191
C      -1.228917   -2.066323    0.018171
O      -0.606870   -2.431507    1.239403
C      -2.588589   -2.796811   -0.086758
C      -2.354862   -4.310920   -0.044044
C      -3.560413   -2.368694    1.014154
O      -3.204763   -2.422859   -1.326087
H       1.139173    1.606943    0.202225
H      -0.305698    1.802176   -0.826169
H      -0.476856    1.752369    0.948008
H      -1.946334   -0.143787    0.732650
H      -1.769313   -0.247311   -1.039532
H      -0.610687   -2.405597   -0.833748
H       0.123564   -1.810462    1.352689
H      -1.897854   -4.607224    0.902565
H      -3.303905   -4.840062   -0.168364
H      -1.677421   -4.621064   -0.849660
H      -3.890327   -1.337840    0.861844
H      -4.447872   -3.007099    1.001654
H      -3.077631   -2.446251    1.990513
H      -2.711615   -2.844733   -2.038341
