22

C       0.215232    1.505793   -0.233434
C      -0.091884    0.037907    0.090977
C       0.644021   -0.473633    1.312786
C       2.054279   -0.991253    1.167039
C       0.941939   -1.945067    1.540147
C       0.651349   -2.245642    2.991490
C       1.450006   -1.612823    4.072345
N       0.165081   -1.023459    3.672227
C       0.237121    0.083731    2.688839
H       1.286042    1.652912   -0.409078
H      -0.322310    1.833063   -1.128819
H      -0.079439    2.166025    0.589289
H      -1.173072   -0.085415    0.240568
H       0.172434   -0.587128   -0.771031
H       2.442996   -1.073569    0.155784
H       2.811830   -0.729311    1.896642
H       0.641927   -2.691476    0.812862
H       0.104873   -3.162733    3.195817
H       1.453009   -2.045285    5.070275
H       2.372976   -1.100516    3.815611
H       0.906896    0.871127    3.053555
H      -0.764946    0.521329    2.614717
