20

C      -0.112046    1.619549    0.202749
C      -0.008419    0.111053    0.024678
C       0.686687   -0.495052   -1.248285
C       1.243078    0.450285   -2.305022
C       2.033051   -0.276721   -3.387641
O       2.467705    0.690902   -4.327938
N       1.676489   -1.081833   -0.328869
C       1.103154   -0.610480    0.828314
O       1.384257   -0.737494    1.990207
H       0.850367    2.117345    0.056386
H      -0.832927    2.057133   -0.495096
H      -0.447292    1.844173    1.219510
H      -0.979496   -0.359017    0.208846
H       0.063670   -1.261102   -1.729604
H       0.413927    0.984960   -2.783590
H       1.891761    1.200697   -1.842524
H       2.889039   -0.803246   -2.933720
H       1.395699   -1.040756   -3.863783
H       2.983034    0.244648   -5.006175
H       2.406707   -1.764887   -0.469130
