20

C      -0.132617    1.515184    0.015449
C      -0.026441   -0.012081    0.013517
C      -1.417959   -0.605062   -0.207371
C       1.154567   -0.615083   -0.817965
C       2.123388   -0.219264    0.315036
C       0.874190   -0.623103    1.176977
C       0.817767   -2.079062    0.794326
N       0.640019   -3.100585    1.508356
O       1.010589   -2.048296   -0.577035
H       0.806721    2.034404    0.209645
H      -0.511644    1.866474   -0.950893
H      -0.849445    1.835345    0.779166
H      -1.856524   -0.207954   -1.129662
H      -1.406669   -1.692723   -0.281433
H      -2.083564   -0.327731    0.617137
H       1.319852   -0.442176   -1.880325
H       3.018094   -0.836206    0.415583
H       2.379890    0.835681    0.363844
H       0.751700   -0.379158    2.229071
H       0.662540   -3.946709    0.934973
