20

C      -0.098275    1.569980   -0.060975
C       0.013230    0.047253    0.048961
C       0.591659   -0.545217   -1.272976
N       1.247864   -1.860040   -1.217087
C       1.249076   -2.377116   -0.077506
O       1.988115   -3.438334    0.393439
C       1.830491   -2.931167    1.766276
C       0.770511   -1.917862    1.271427
C       0.818029   -0.395255    1.297640
H       0.892554    2.031138   -0.145536
H      -0.676035    1.862201   -0.944438
H      -0.593040    1.997546    0.817341
H      -1.001115   -0.356447    0.177697
H      -0.205310   -0.576069   -2.025902
H       1.345928    0.147835   -1.671305
H       1.492946   -3.717242    2.444492
H       2.771716   -2.496625    2.115585
H      -0.237970   -2.277429    1.498182
H       1.855106   -0.042512    1.227235
H       0.383867    0.035223    2.206011
