17

O       0.362312    0.968129    0.589922
C      -0.190942    0.281558   -0.520712
C      -1.417894   -0.522394   -0.133865
C      -1.967884   -1.549282   -1.086134
C      -1.323181   -1.983795    0.212936
O      -0.052937   -2.555881    0.208637
O      -2.392872    0.251183    0.540283
C      -2.214383    0.435017    1.875854
O      -2.900311    1.185815    2.501786
H      -0.090292    1.812670    0.675919
H      -0.454291    0.977251   -1.328664
H       0.572899   -0.406113   -0.891560
H      -3.045796   -1.621838   -1.173014
H      -1.409594   -1.713199   -2.002184
H      -1.995410   -2.339858    0.993368
H      -0.120419   -3.435838   -0.177107
H      -1.399453   -0.180137    2.288631
