15

C      -0.020575    1.462947   -0.000125
C      -0.001973   -0.028232   -0.031691
N      -0.049870   -0.758839   -1.118689
C      -0.006817   -2.058340   -0.649316
N      -0.019037   -3.274360   -1.192896
N       0.050081   -4.072495   -0.103361
C       0.105745   -3.425120    1.107275
C       0.069131   -2.094152    0.764648
N       0.071105   -0.768472    1.146515
H       0.886118    1.866314    0.465456
H      -0.083580    1.834858   -1.022712
H      -0.879384    1.842223    0.565665
H       0.056382   -5.068052   -0.243552
H       0.162774   -3.967841    2.035641
H       0.115539   -0.387551    2.074868
