13

O       0.001924    0.010435    0.044107
C      -0.031546    1.204391    0.020820
C      -1.250767    2.148932    0.023038
C      -0.508936    3.494077    0.033990
O       0.598795    3.259479   -0.813577
C       1.164487    2.197451   -0.028128
C       1.180704    2.858342    1.363063
O       1.907996    2.718398    2.293910
O       0.085129    3.684197    1.340265
H      -1.835040    2.026615   -0.892873
H      -1.893773    1.977202    0.887849
H      -1.049030    4.393405   -0.250073
H       2.110795    1.830400   -0.409686
