12

C      -0.165509    1.307991   -0.308403
C       1.261315    1.017972    0.017113
N       0.248680   -0.025582    0.132219
C      -0.121097   -0.492038    1.368807
N       0.684636   -0.779439    2.357428
O      -0.141539   -1.299451    3.309442
N      -1.442626   -1.285209    2.837437
N      -1.437734   -0.805291    1.675944
H      -0.731619    1.913757    0.393314
H      -0.492772    1.362259   -1.341049
H       1.981910    0.866999   -0.779609
H       1.664427    1.422373    0.941004
