14

O      -0.606587    1.388045    0.934595
C       0.113785    1.130333    0.010969
C       1.297256    2.012397   -0.409618
O       2.173909    1.541840   -1.094702
C       1.266790    3.483383    0.014017
O       0.266500    4.129862   -0.203519
N       2.399780    3.937190    0.639829
C       3.739316    4.004705    0.080337
C       2.978143    5.247875    0.444023
H       0.054805    0.191707   -0.580030
H       4.535570    3.652125    0.728956
H       3.853034    3.760492   -0.970326
H       2.560470    5.850757   -0.357135
H       3.236115    5.787215    1.349939
