23

C       0.098769    1.490289    0.139974
C      -0.083596   -0.029883   -0.011196
C      -1.571196   -0.414824    0.010304
C       0.633585   -0.537320   -1.240997
C       0.165602   -0.386498   -2.692341
O       0.675815   -1.701380   -3.041216
C       1.059734   -1.924584   -1.680523
C       2.106323   -0.937579   -1.248327
C       3.167270   -0.394418   -2.179791
H       1.158574    1.760503    0.176849
H      -0.353895    2.025012   -0.703353
H      -0.377824    1.854859    1.055851
H       0.394258   -0.510169    0.853989
H      -2.125478    0.079811   -0.794791
H      -1.704718   -1.494996   -0.105023
H      -2.033639   -0.114315    0.956084
H      -0.923900   -0.364792   -2.804130
H       0.611120    0.411160   -3.298612
H       0.901414   -2.917140   -1.271619
H       2.448372   -1.129872   -0.231793
H       2.832853   -0.442553   -3.218719
H       3.421388    0.644351   -1.942825
H       4.084168   -0.988425   -2.103268
