18

O      -0.309333    0.474859    0.720521
C      -0.008984    1.353806   -0.042469
C       1.402186    1.895299   -0.192173
O       1.380157    2.919141   -1.149176
C       2.652784    3.496643   -1.388640
C       2.526928    4.539142   -2.462905
C       2.071147    5.931077   -2.110045
C       3.506391    5.685792   -2.499950
H      -0.747055    1.849361   -0.710989
H       1.750591    2.251059    0.793104
H       2.069326    1.065053   -0.483625
H       3.043329    3.951259   -0.461777
H       3.367317    2.711260   -1.688848
H       2.197396    4.147831   -3.420792
H       1.427320    6.451405   -2.809853
H       1.855920    6.141433   -1.067706
H       4.260636    5.736595   -1.721304
H       3.848281    6.032834   -3.468282
