18

C       0.014666    1.499834    0.340875
O       1.347341    1.645286   -0.204793
C       1.424329    0.229697   -0.503214
C      -0.032472    0.005958   -0.041301
C      -0.640848   -0.354069   -1.385385
C      -0.029933    0.490697   -2.538124
C      -0.128193   -0.783517   -3.385750
N       0.354361   -1.352094   -2.048251
C       1.286246   -0.105156   -1.979341
H       0.002846    1.694488    1.420051
H      -0.709984    2.159831   -0.151286
H       2.255950   -0.260825    0.009713
H      -0.244801   -0.711859    0.750190
H      -1.687724   -0.659864   -1.432360
H      -0.240134    1.529713   -2.811405
H      -1.121197   -1.138595   -3.676977
H       0.587843   -0.918681   -4.201310
H       2.177214   -0.162663   -2.606375
