18

C      -0.253768    1.584674   -0.105538
C      -0.033135    0.099179   -0.055020
C       0.008843   -0.595928    1.285293
C       1.351931   -0.397098    2.032290
O       1.575031    0.936696    2.400597
C       1.390808   -1.285814    3.260444
O       1.567196   -0.831474    4.364997
N       0.123497   -0.673216   -1.062513
O       0.079314    0.014092   -2.284719
H       0.289929    2.067048    0.709098
H       0.055790    1.996037   -1.065600
H      -1.319991    1.806337    0.031969
H      -0.797418   -0.221853    1.927864
H      -0.144803   -1.666990    1.120427
H       2.155313   -0.749128    1.360969
H       1.676047    0.927743    3.366348
H       1.245314   -2.371577    3.090306
H       0.228679   -0.695528   -2.917920
