14

O      -0.149035    1.392077    0.018180
C      -0.087999    0.010334   -0.029796
C      -1.337342   -0.763665    0.023595
C      -2.468556   -0.009428   -0.692559
C      -1.628176   -0.060915   -1.985873
O      -1.847458    0.207279   -3.126598
C      -0.474484   -0.777937   -1.304417
C       0.382824   -1.765721   -1.860890
N       1.082097   -2.569797   -2.313961
H       0.632135    1.754960   -0.414037
H       0.768051   -0.441437    0.471072
H      -1.473451   -1.608106    0.685672
H      -3.376736   -0.605201   -0.815265
H      -2.718199    0.977770   -0.302418
