19

C       0.011375    1.468476    0.280103
C      -0.023798   -0.019042   -0.026805
O      -1.349216   -0.480136    0.134002
C      -1.490826   -1.859398   -0.141704
C      -2.933544   -2.232943   -0.016191
N      -3.287664   -3.380042    0.559278
N      -4.631190   -3.400192    0.466165
C      -5.139007   -2.298509   -0.138653
C      -4.060758   -1.510059   -0.472510
H       1.027163    1.858385    0.164856
H      -0.650102    2.015624   -0.397739
H      -0.319126    1.655896    1.305621
H       0.324021   -0.211271   -1.056774
H       0.655250   -0.569300    0.646739
H      -1.124562   -2.073882   -1.161804
H      -0.894713   -2.473626    0.550423
H      -5.133401   -4.182802    0.848453
H      -6.200660   -2.165587   -0.275448
H      -4.072330   -0.549248   -0.958655
