16

O      -0.001801    1.412454    0.189706
C      -0.076623    0.031416    0.088750
C      -0.539100   -0.886784    1.243733
N      -1.022375   -0.299249    2.448238
C      -1.961821    0.540591    2.371781
O      -2.640418    0.930394    1.243159
C      -2.687272   -0.046741    0.186492
C      -1.354264   -0.745592   -0.025074
O      -1.429028   -1.854767   -0.871524
H      -0.849328    1.752877    0.499225
H       0.762464   -0.357629   -0.480311
H       0.028139   -1.800431    1.382135
H      -2.319284    1.084150    3.242109
H      -3.440710   -0.805821    0.429010
H      -3.014258    0.499352   -0.703777
H      -1.335771   -1.549335   -1.781426
