16

N       0.367770    0.746221   -0.795334
C      -0.239115    0.422295    0.371958
O       0.151505    0.773385    1.467197
C      -1.466340   -0.523712    0.256824
C      -1.044544   -2.024392    0.454122
C      -1.579011   -1.867102    1.896370
N      -2.249316   -0.598099    1.501584
C      -2.247208   -0.233178   -0.949191
N      -2.808334   -0.008684   -1.935349
H       1.143976    1.387789   -0.760096
H      -0.081419    0.583887   -1.681863
H      -1.631407   -2.700218   -0.167706
H       0.017287   -2.234000    0.327429
H      -2.270747   -2.637350    2.247674
H      -0.779126   -1.731948    2.630743
H      -2.031275    0.182681    2.114750
