18

C      -0.058333    1.619708    0.192507
C       1.465504    1.432490    0.000029
C       1.801794    0.574334    1.263682
C       0.595656   -0.458583    1.267971
C      -0.034764    0.067878   -0.004219
O      -1.080658   -0.516744   -0.771509
C      -0.722703   -0.133851   -2.043722
N       0.421439    0.381556   -2.267563
C       1.138696    0.273530   -0.982463
H      -0.411996    2.006304    1.151387
H      -0.539723    2.139129   -0.634766
H       2.140921    2.256001   -0.227691
H       2.766353    0.066604    1.176843
H       1.821193    1.188300    2.167518
H       0.930897   -1.494826    1.180667
H      -0.036368   -0.366693    2.154539
H      -1.488211   -0.312375   -2.791048
H       1.917937   -0.492200   -1.079416
