20

C       0.005838    1.514663    0.086275
C       0.038378   -0.002270   -0.017762
C       0.774629   -0.510981   -1.264272
C       1.045880   -1.986545   -1.143011
C       0.945051   -2.619673    0.022578
C       0.616869   -1.900082    1.306511
C       1.578129   -2.266175    2.435911
O       0.676844   -0.488901    1.157680
H       1.023679    1.911045    0.156846
H      -0.476827    1.951144   -0.793655
H      -0.545121    1.826305    0.977639
H      -0.995368   -0.389122   -0.048992
H       0.171632   -0.307095   -2.158657
H       1.714390    0.044800   -1.394689
H       1.314759   -2.531017   -2.044631
H       1.103987   -3.692586    0.096651
H      -0.407252   -2.185665    1.617354
H       2.604835   -2.015455    2.154491
H       1.319451   -1.711518    3.341814
H       1.525252   -3.337068    2.654246
