19

C      -0.770376    1.309360    1.733119
C       0.226259    0.387576    1.030119
O       0.512849   -0.673488    1.945710
C       1.585374   -1.519366    1.567203
C       2.935810   -0.907428    1.849164
C       4.117535   -1.256654    1.051001
O       3.459625   -0.003981    0.866307
C      -0.310271   -0.128226   -0.237363
C      -0.755409   -0.550043   -1.271499
H      -0.328305    1.685716    2.658966
H      -1.027352    2.153194    1.088389
H      -1.682648    0.758657    1.974918
H       1.146941    0.944783    0.810728
H       1.470887   -2.429693    2.167026
H       1.516013   -1.795261    0.505838
H       3.084277   -0.574340    2.877208
H       5.106662   -1.205295    1.502979
H       4.020667   -1.960855    0.225439
H      -1.146521   -0.919171   -2.187369
