17

C       0.020223    1.514000    0.007964
C       0.032912   -0.005514    0.002819
O       1.083171   -0.615488   -0.007482
C      -1.276605   -0.734971    0.010672
C      -2.512228   -0.077633    0.022247
C      -3.698114   -0.806335    0.029095
C      -3.660301   -2.198528    0.024463
C      -2.433284   -2.862876    0.012938
C      -1.251059   -2.135822    0.006089
H       1.049848    1.871830    0.001565
H      -0.507269    1.904464   -0.868849
H      -0.494394    1.898728    0.894891
H      -2.555279    1.005602    0.025954
H      -4.650937   -0.287692    0.038040
H      -4.585314   -2.765898    0.029819
H      -2.402878   -3.947420    0.009325
H      -0.285097   -2.627050   -0.002910
