21

C       0.100972    1.588190   -0.025925
C       0.035246    0.055843    0.000575
C       0.537412   -0.547369   -1.328404
C       0.759613   -2.037254   -1.267647
C       1.063010   -2.666571   -0.131155
C       1.218683   -1.945620    1.154157
C       2.223589   -0.788524    1.247066
C       0.743428   -0.521773    1.220409
O       0.145515   -0.179436    2.446543
H       1.138395    1.935787   -0.096303
H      -0.445187    1.990637   -0.885197
H      -0.345185    2.022672    0.874699
H      -1.016254   -0.239132    0.119161
H      -0.187421   -0.306006   -2.114840
H       1.467713   -0.044484   -1.634558
H       0.686571   -2.594413   -2.197381
H       1.226182   -3.740742   -0.124342
H       1.091878   -2.521637    2.064127
H       2.725928   -0.649831    2.198130
H       2.828313   -0.584416    0.370201
H       0.400015    0.725520    2.656874
