19

C      -0.042696    1.550811    0.061881
C       0.038064    0.039908    0.107026
C      -1.169663   -0.651929   -0.425778
O      -2.159489   -0.075795   -0.811890
C       1.308239   -0.783647   -0.192156
C       2.560213   -0.044586    0.293936
C       1.976739   -0.052264    1.744573
C       0.735361   -0.776781    1.201988
O       0.118380   -1.826540    1.859901
H       0.844413    2.029842    0.478979
H      -0.165289    1.895679   -0.969135
H      -0.915594    1.900156    0.620754
H      -1.104334   -1.760041   -0.452156
H       1.285349   -1.563718   -0.944030
H       3.461430   -0.654612    0.207714
H       2.754430    0.931100   -0.158083
H       2.542972   -0.710307    2.407121
H       1.822959    0.909134    2.242406
H      -0.520180   -1.466786    2.486420
