14

O       0.620818    1.346509    1.984924
C       0.781977    1.019823    0.841958
C       1.285633    1.960350   -0.260138
O       1.797404    1.450909   -1.234275
C       1.221173    3.452739   -0.085532
C       2.585021    4.117064   -0.145124
N       1.673275    4.230364   -1.262685
C       0.159973    4.020761    0.699036
C      -0.733999    4.511745    1.332914
H       0.664261   -0.020707    0.474059
H       2.719410    5.015352    0.449065
H       3.448755    3.461994   -0.224780
H       1.932138    3.550002   -1.979405
H      -1.521241    4.938163    1.904215
