19

C      -0.081884    1.462647    0.026757
C      -0.026728   -0.043744   -0.052253
C       0.962724   -0.737782   -0.927377
C       0.552581   -1.985547   -1.185497
C      -0.684432   -2.270303   -0.373075
C      -0.244267   -2.305815    1.148069
C      -0.519686   -0.814789    1.236246
C      -1.291358   -0.845237   -0.063454
O      -2.508801   -0.328422   -0.445052
H       0.826228    1.871547    0.483345
H      -0.183711    1.901361   -0.971544
H      -0.938429    1.795814    0.619364
H       1.878727   -0.272908   -1.272794
H       1.085813   -2.734921   -1.757651
H      -1.338978   -3.073636   -0.709767
H      -0.964536   -2.866539    1.750786
H       0.768280   -2.670457    1.347573
H      -0.686811   -0.237272    2.138539
H      -3.197828   -0.728710    0.096765
