23

C      -0.423436    1.281061    0.068080
O       0.433274    0.184974   -0.161953
C       0.893649   -0.480252    1.019143
C       0.167817   -1.828203    1.315894
C      -1.279928   -1.913432    0.836274
C       1.100566   -2.915994    0.722402
C       2.425807   -2.211773    0.606841
C       2.333308   -0.892613    0.781488
C       3.416932    0.132177    0.675322
H       0.054088    2.046332    0.699610
H      -0.647932    1.723602   -0.906408
H      -1.369975    0.986593    0.543340
H       0.796870    0.216665    1.865585
H       0.186696   -1.948420    2.406154
H      -1.344523   -1.696875   -0.233654
H      -1.682575   -2.917443    1.006930
H      -1.928197   -1.207036    1.365568
H       1.142119   -3.808395    1.358504
H       0.751520   -3.258431   -0.262500
H       3.347872   -2.735788    0.373432
H       4.379112   -0.319912    0.419554
H       3.166560    0.870259   -0.095455
H       3.540106    0.685098    1.615809
