17

C      -0.112923    1.547810    0.009727
C       1.424542    1.239903   -0.006535
C       1.261401    0.021276    0.950049
C       1.875281   -1.011013   -0.007537
O       1.159326   -2.254950    0.053877
C      -0.151211   -2.165583   -0.453173
O      -0.884724   -1.027431    0.020928
C       0.010593    0.025127    0.008679
C       1.248095    0.022730   -0.966846
H      -0.507795    2.012533    0.917937
H      -0.530014    2.017954   -0.886171
H       2.244773    1.953248   -0.019867
H       1.236086    0.028223    2.039095
H       2.941706   -1.245227   -0.011930
H      -0.124288   -2.112578   -1.552836
H      -0.689146   -3.056591   -0.126322
H       1.221631    0.059898   -2.055952
