19

C       0.215293    1.518195    0.104024
C      -0.035544    0.047305   -0.036337
C      -0.972847   -0.725253    0.797330
N       0.477344   -0.978874    0.973342
C       0.918433   -1.851725   -0.191169
C       0.366097   -3.276059   -0.227828
C       0.406672   -0.799859   -1.232655
C       2.384879   -1.904142   -0.171332
N       3.539063   -1.958167   -0.187945
H       1.248791    1.768772   -0.156597
H      -0.448652    2.088234   -0.556443
H       0.034450    1.844606    1.131892
H      -1.395794   -0.232742    1.667521
H      -1.616720   -1.482977    0.359646
H      -0.722802   -3.278339   -0.306909
H       0.769154   -3.814814   -1.090107
H       0.652702   -3.813858    0.680098
H      -0.383229   -1.137760   -1.909111
H       1.212074   -0.355639   -1.818060
