19

C      -0.384703    1.654577   -0.217549
C      -0.025132    0.171626   -0.064989
C      -1.278444   -0.671344    0.216276
O      -1.843781   -0.228899    1.441198
C       0.713238   -0.383257   -1.253450
C       0.866942    0.175077   -2.485955
O       1.589938   -0.635772   -3.306292
C       1.906916   -1.740591   -2.583129
C       1.402510   -1.647055   -1.327581
H       0.512205    2.266322   -0.351198
H      -1.035924    1.812004   -1.085384
H      -0.919108    2.002638    0.668195
H       0.617048    0.064049    0.820033
H      -1.985434   -0.554483   -0.621077
H      -1.003761   -1.735890    0.268271
H      -2.663158   -0.709938    1.586493
H       0.548551    1.107275   -2.920787
H       2.489411   -2.486442   -3.098484
H       1.508662   -2.375163   -0.537808
