16

C       0.013406    1.360475   -0.081599
O      -0.120903   -0.043723    0.086144
C       0.670523   -0.600531    1.089935
C       0.090691   -1.968690    1.471870
N       0.942943   -2.694183    2.402071
C       2.177121   -2.461102    2.354936
O       2.853129   -1.618903    1.491894
C       2.131922   -0.768067    0.672922
O       2.683155   -0.223071   -0.233222
H       1.016661    1.630100   -0.425017
H      -0.720671    1.653834   -0.834678
H      -0.207748    1.891706    0.856478
H       0.682842    0.034654    1.995212
H      -0.896872   -1.829945    1.917912
H      -0.052722   -2.569455    0.563973
H       2.889431   -2.958834    3.006370
