23

C       0.481208   -0.703166    1.304726
C       0.030177   -0.015128    0.011901
C       0.800747   -0.423198   -1.230735
C       2.369905   -0.344751   -1.346664
C       2.097134   -1.275921   -2.573614
C       0.972474   -1.918332   -1.696464
C       1.260426   -0.337773   -3.450688
C       0.409424    0.225817   -2.587468
C      -0.671637    1.230822   -2.791700
H       0.372783   -1.790653    1.239066
H       1.530789   -0.486839    1.528951
H      -0.116271   -0.361684    2.155606
H      -1.037162   -0.219109   -0.149630
H       0.110654    1.073264    0.137748
H       2.810626    0.635610   -1.546291
H       2.892330   -0.847143   -0.525537
H       2.882838   -1.870194   -3.039071
H       1.355648   -2.577496   -0.910173
H       0.130563   -2.382288   -2.217163
H       1.359179   -0.188220   -4.517293
H      -0.738381    1.525632   -3.843030
H      -1.652643    0.842566   -2.488340
H      -0.502745    2.138539   -2.197873
