19

C      -0.034066    1.349736   -0.320275
C       1.427330    1.532522    0.137271
C       1.248558    0.129530    0.741438
O      -0.103728    0.042346    0.290137
C       2.243921   -1.034839    0.464933
C       3.047380   -0.465200    1.676552
C       1.612634   -0.212913    2.206154
O       1.081953   -1.531064    2.378913
C       1.478473   -2.177628    1.142425
H      -0.762104    2.041583    0.117802
H      -0.192306    1.302066   -1.403746
H       2.166104    1.609023   -0.662855
H       1.593851    2.335550    0.858062
H       2.680476   -1.216385   -0.516641
H       3.656449   -1.162915    2.253613
H       3.605481    0.441819    1.439626
H       1.362904    0.409013    3.064495
H       0.588740   -2.482774    0.582158
H       2.098372   -3.054421    1.360255
