16

C      -0.055470   -1.223490   -0.055399
C       0.004073   -0.022161   -0.018426
C       0.038615    1.407912    0.036010
C       0.516301    2.163844    1.269795
C       1.329009    1.401969    2.316473
C       2.587559    1.008907    1.571643
C       2.597742    1.474574    0.321025
C       1.345927    2.217541    0.005053
H      -0.100112   -2.283110   -0.100307
H      -0.787278    1.891092   -0.480088
H      -0.088746    3.005805    1.584020
H       1.550126    2.036273    3.184580
H       0.792983    0.522876    2.696770
H       3.355457    0.387124    2.017126
H       3.382443    1.312544   -0.408124
H       1.366249    3.083239   -0.647854
