19

C      -0.475263    1.101400   -0.230540
O      -0.254335   -0.297662   -0.346730
C       0.875912   -0.635121   -1.083672
C       1.013808   -2.160802   -1.118354
C       0.247269   -2.553564   -2.390509
C      -1.212923   -2.974547   -2.154739
C       0.295087   -1.275255   -3.228050
O       0.005629   -1.134020   -4.379010
O       0.733282   -0.232418   -2.455985
H       0.388665    1.598438    0.234062
H      -0.664973    1.559159   -1.207169
H      -1.349348    1.229927    0.410154
H       1.758334   -0.100679   -0.708180
H       2.070766   -2.427694   -1.197892
H       0.611181   -2.600334   -0.204769
H       0.758871   -3.336997   -2.955239
H      -1.740177   -2.218901   -1.566419
H      -1.729998   -3.101046   -3.109460
H      -1.250866   -3.922398   -1.609964
