21

C      -0.033351    1.508512    0.003102
C       0.029814   -0.020199    0.078144
C      -1.385257   -0.577867   -0.097997
O       0.895323   -0.534622   -0.991779
C       1.895178   -1.264919   -0.267922
C       1.111420   -2.047249    0.808827
C       0.808921   -0.587045    1.288752
C       2.279350   -0.266248    0.865435
O       3.200187   -0.715550    1.834451
H       0.940970    1.980477    0.135539
H      -0.421601    1.812357   -0.973745
H      -0.709785    1.898393    0.771093
H      -1.783065   -0.264493   -1.068104
H      -1.412634   -1.667340   -0.063511
H      -2.049774   -0.190875    0.681835
H       2.607097   -1.710316   -0.963516
H       0.292110   -2.685322    0.479075
H       1.764110   -2.570899    1.503934
H       0.437793   -0.354802    2.286509
H       2.510519    0.752229    0.537851
H       4.079028   -0.684382    1.443293
