15

O       0.104680   -0.063160    0.092781
C       0.017794    1.127600   -0.059061
C      -1.335965    1.795524   -0.326766
C      -1.281234    3.216196   -0.841135
O      -0.658371    4.174858    0.001215
C      -0.005720    3.863069   -1.239574
C       1.250871    3.052921   -1.127923
O       2.159962    3.174642   -1.913067
C       1.243068    2.042329    0.008695
H      -1.884179    1.155943   -1.025815
H      -1.902483    1.778357    0.613441
H      -2.185709    3.574004   -1.332435
H       0.002275    4.650600   -1.989246
H       1.166508    2.601372    0.950588
H       2.153921    1.444788    0.001585
