21

C       0.011081    1.582835   -0.159751
C       1.547052    1.466181    0.022548
C       1.347185    0.058851    0.652831
C      -0.096769    0.046846    0.028891
O       2.265500   -0.877359    0.126135
C       2.266547   -2.128136    0.798010
C       2.733414   -1.972546    2.245713
C       1.987568   -0.833459    2.887410
C       1.339525    0.069022    2.154062
H      -0.463989    2.134195    0.656260
H      -0.347366    1.995705   -1.104535
H       2.065289    1.355421   -0.932967
H       2.061167    2.217565    0.626151
H      -0.914838   -0.340639    0.640242
H      -0.071476   -0.485512   -0.925548
H       1.259232   -2.573933    0.779926
H       2.932857   -2.779380    0.225484
H       2.560264   -2.906378    2.795558
H       3.816460   -1.790282    2.278236
H       1.980008   -0.768587    3.972219
H       0.771618    0.867424    2.625365
