19

C       0.087604    1.589968   -0.027270
C       0.062760    0.060270   -0.060334
C      -1.345450   -0.558156    0.097547
O      -1.949105   -0.195786    1.333617
C      -2.215384   -0.105799   -1.019434
N      -2.883696    0.282406   -1.878805
C      -1.261176   -2.084871    0.069492
C      -1.006149   -2.833288    1.322964
N      -2.322132   -2.900103    0.658272
H       1.109561    1.956274   -0.155449
H      -0.524568    2.019408   -0.826430
H      -0.273647    1.976669    0.931867
H       0.490409   -0.301757   -1.002037
H       0.671599   -0.349800    0.751631
H      -2.159107    0.743471    1.314514
H      -0.868230   -2.465953   -0.869810
H      -0.425601   -3.750471    1.289159
H      -0.926884   -2.264585    2.243564
H      -2.963919   -2.284982    1.154919
