17

C       0.187029    1.413034   -0.757562
C       0.100135    0.011066   -0.378610
C       0.019109   -1.148601   -0.064319
C      -0.034967   -2.542411    0.277135
N      -0.727225   -2.933299    1.523711
C      -1.301232   -3.359831    0.245618
C      -2.627730   -2.772439   -0.176325
N      -3.121532   -1.837516    0.672307
O      -3.175881   -3.143257   -1.197329
H       1.112121    1.616024   -1.308019
H      -0.652067    1.703795   -1.398960
H       0.175781    2.064211    0.123430
H       0.863043   -3.103575    0.024852
H      -0.238176   -3.697497    1.981375
H      -1.186908   -4.390518   -0.078198
H      -2.590216   -1.570828    1.484931
H      -3.957224   -1.340473    0.416252
