16

O      -0.101301   -0.026543   -0.180999
C      -0.008131    1.187694   -0.163719
C       1.227635    1.914254   -0.026610
C       1.357748    3.260037    0.010654
N       2.648216    3.674782    0.222823
C       3.559966    2.515931    0.024689
C       2.595796    1.287284    0.149528
C       4.243610    2.593038   -1.265496
C       4.809002    2.675888   -2.322966
H      -0.911934    1.832798   -0.263915
H       0.568117    3.998022   -0.067027
H       2.947582    4.567355   -0.142354
H       4.309581    2.507998    0.821825
H       2.695528    0.822552    1.136410
H       2.814457    0.520249   -0.595247
H       5.307783    2.736496   -3.259016
