19

C      -0.108610    1.567837   -0.002051
C       0.061768    0.061588    0.017774
C       1.185151   -0.618265   -0.824971
O       2.386095    0.148945   -0.719554
C       2.908296    0.158409    0.596247
O       1.914504    0.124946    1.601399
C       0.771085   -0.640211    1.218262
C       1.184158   -1.768436    0.233048
O       0.117863   -2.681637    0.090624
H       0.835839    2.081189    0.187286
H      -0.486557    1.902879   -0.974014
H      -0.826111    1.886831    0.761519
H      -0.881408   -0.453523   -0.176104
H       1.035530   -0.843976   -1.883858
H       3.595252   -0.692406    0.726814
H       3.465727    1.091523    0.718802
H       0.222341   -0.894841    2.126139
H       2.131718   -2.286082    0.420508
H       0.295391   -3.230910   -0.680058
