18

C      -0.072109    1.543204    0.038560
C       0.031045    0.035557    0.013957
C      -0.786436   -0.812271    0.973685
C       0.717906   -0.789382    1.108480
N       1.478528   -1.798816    0.413784
C       1.214459   -1.742154   -0.920731
C       0.433572   -0.673966   -1.250623
C       0.088061   -0.313386   -2.600987
O      -0.603299    0.633043   -2.937153
H       0.867849    2.007447   -0.278192
H      -0.852772    1.877647   -0.647839
H      -0.307178    1.901811    1.045825
H      -1.333461   -0.278634    1.743473
H      -1.268295   -1.711589    0.605494
H       1.190063   -0.353944    1.982126
H       1.810313   -2.633213    0.868439
H       1.624147   -2.491222   -1.587184
H       0.513869   -1.002376   -3.368861
