17

O      -0.158601    1.434339    0.179497
C      -0.046483    0.041274   -0.082453
C      -1.428320   -0.567366    0.064200
C      -1.405757   -2.095748    0.128985
C      -1.333196   -2.095936    1.609712
C      -1.929396   -0.634418    1.536131
C      -3.283701   -1.341058    1.382165
N      -2.571688   -2.590187    0.946294
H       0.709478    1.832571    0.067683
H       0.334757   -0.141221   -1.100207
H       0.648939   -0.444836    0.620964
H      -2.112835   -0.095299   -0.650866
H      -0.995408   -2.802131   -0.581626
H      -0.760515   -2.662643    2.331671
H      -1.757723    0.202708    2.208474
H      -3.783200   -1.549405    2.331673
H      -4.004322   -0.933246    0.662916
