16

C      -0.238450    0.992198    0.279930
C       1.026198    1.249417   -0.561850
C       1.745506    0.422848    0.538629
O       0.491585    0.155671    1.206630
C       2.433595   -0.833552    0.139837
C       1.988221   -2.109560    0.230654
O       2.966511   -2.933461   -0.259380
C       3.957404   -2.092130   -0.625073
N       3.712161   -0.840868   -0.415105
H      -0.656630    1.875698    0.777480
H      -1.050514    0.443606   -0.210367
H       1.030697    0.778639   -1.545265
H       1.343007    2.288509   -0.652786
H       2.415030    1.028639    1.164082
H       1.092155   -2.574005    0.599299
H       4.843257   -2.539294   -1.048280
