19

C      -0.077950   -1.229338   -0.094798
C      -0.051891   -0.028050   -0.039445
C      -0.000983    1.424884    0.038711
C      -0.508373    2.019953    1.399274
C       0.743225    2.778229    1.832244
C       1.398117    3.454370    0.583272
C       2.792675    3.231555    1.214819
C       2.009786    1.925808    1.492323
C       1.432804    1.990478    0.043211
H      -0.108068   -2.289169   -0.148582
H      -0.568862    1.843458   -0.801011
H      -1.373032    2.675951    1.260414
H      -0.790752    1.234772    2.105119
H       0.716984    3.328573    2.774922
H       1.032945    4.335817    0.051594
H       3.640366    3.161803    0.527122
H       3.042165    3.848917    2.082595
H       2.354379    1.031723    2.013941
H       2.077313    1.741709   -0.801188
