19

C       0.576172    0.342474    0.326265
N      -0.442147    0.190750   -0.719712
C      -1.658898   -0.386390   -0.326706
C      -2.936529    0.125293   -0.230567
C      -3.797679   -0.953772    0.125385
C      -3.026963   -2.084642    0.261930
C      -3.363077   -3.484723    0.640368
O      -2.840213   -4.447300   -0.280205
N      -1.721094   -1.721969   -0.013664
H       1.469716    0.796827   -0.110534
H       0.244359    0.955354    1.178462
H       0.859381   -0.641155    0.711203
H      -0.620487    1.078729   -1.170648
H      -3.214858    1.156009   -0.390459
H      -4.863298   -0.900234    0.292971
H      -2.918572   -3.764281    1.603991
H      -4.453721   -3.570771    0.749362
H      -3.172929   -4.207672   -1.152413
H      -0.972056   -2.380022   -0.149121
