23

C      -0.013862    1.522935    0.262882
C      -0.041221    0.048975   -0.159723
C      -1.410985   -0.566488   -0.051479
C      -1.959155   -1.114229    1.246110
C      -1.722352   -2.030979    0.051389
C      -2.900777   -2.283936   -0.880695
C      -3.975331   -3.240895   -0.363324
C      -3.428122   -0.849295   -1.128439
O      -2.337954    0.043255   -0.928344
H       0.990070    1.944326    0.153852
H      -0.701366    2.110510   -0.351208
H      -0.317795    1.636997    1.308675
H       0.301761   -0.045547   -1.197557
H       0.651122   -0.533737    0.458886
H      -1.268347   -1.205350    2.077870
H      -2.975059   -0.872976    1.541105
H      -0.936976   -2.776720    0.111627
H      -2.495350   -2.679491   -1.820932
H      -4.366762   -2.904388    0.602681
H      -4.816476   -3.309052   -1.062253
H      -3.574752   -4.250398   -0.228187
H      -3.808478   -0.697000   -2.142867
H      -4.246399   -0.620453   -0.428390
