21

C      -0.151316    1.331092   -0.044792
O      -0.157036   -0.073888   -0.118436
C       0.767621   -0.577863   -1.068099
C       0.736969   -2.070606   -1.018066
C       1.385085   -2.934235    0.074803
C       1.795452   -3.985737   -1.002466
C       1.137221   -3.122608   -2.086385
C      -0.296325   -2.876311   -1.755478
O      -1.053210   -3.884444   -1.150775
H       0.835705    1.722820    0.249622
H      -0.427097    1.793743   -1.006421
H      -0.885569    1.624040    0.709846
H       0.509801   -0.221630   -2.081198
H       1.780613   -0.199812   -0.843034
H       2.247510   -2.443645    0.532481
H       0.716006   -3.280794    0.866604
H       2.878187   -4.058246   -1.121916
H       1.378026   -4.988368   -0.887920
H       1.520597   -2.971337   -3.089559
H      -0.833708   -2.304262   -2.513892
H      -1.662185   -3.462963   -0.534860
