19

C      -0.156075    1.610438    0.002539
C      -0.043373    0.080696    0.011685
C      -1.423108   -0.584412    0.031174
O      -2.087945   -0.163769    1.213108
C       0.766531   -0.424229   -1.186430
C       2.286217   -0.164498   -1.225271
O       2.543927   -1.606548   -1.239462
C       1.204921   -1.894448   -1.173194
O       0.694565   -2.967806   -1.113233
H       0.827702    2.087289    0.061800
H      -0.643797    1.958792   -0.915919
H      -0.753682    1.947250    0.851659
H       0.470820   -0.227956    0.932166
H      -1.985172   -0.283526   -0.870113
H      -1.305976   -1.675808    0.000304
H      -2.922629   -0.636732    1.272947
H       0.263104   -0.168082   -2.124995
H       2.685939    0.308532   -2.123892
H       2.712960    0.289992   -0.328259
