23

C       0.305516    1.470665    0.056171
O      -0.246546    0.236906   -0.348833
C       0.598192   -0.497769   -1.193750
C       1.726847   -1.309529   -0.518025
O       1.143863   -2.553292   -0.948430
C       0.030888   -1.882449   -1.596522
C      -1.327466   -2.309143   -1.048687
C      -2.457160   -1.567473   -1.776130
C      -1.477326   -3.831731   -1.162848
H       1.227395    1.337411    0.641824
H       0.535525    2.112971   -0.808114
H      -0.438312    1.968880    0.681835
H       0.929335    0.124109   -2.037280
H       2.738053   -1.167614   -0.918777
H       1.750042   -1.217038    0.575432
H       0.063637   -2.061860   -2.681666
H      -1.355638   -2.031643    0.011150
H      -3.432702   -1.873170   -1.384479
H      -2.363493   -0.486142   -1.649646
H      -2.449432   -1.792807   -2.849799
H      -0.651363   -4.342329   -0.661579
H      -2.417133   -4.163069   -0.709496
H      -1.484427   -4.148774   -2.213063
