18

C      -0.230453    1.438811    0.091981
N       0.002000    0.001255    0.036478
C       0.798126   -0.426799   -1.143567
C       2.173867   -0.217398   -0.442032
C       2.649870   -1.585446   -0.973103
C       1.130334   -1.960250   -0.925870
C       0.966280   -1.959604    0.594954
O       0.746148   -2.843300    1.371402
C       1.221633   -0.459559    0.805834
H       0.666166    2.055014   -0.094830
H      -0.987383    1.704692   -0.653543
H      -0.624576    1.701894    1.078267
H       0.518998   -0.077020   -2.137495
H       2.779973    0.685077   -0.483521
H       3.019612   -1.499196   -1.998061
H       3.339796   -2.193073   -0.380761
H       0.697942   -2.773847   -1.501423
H       1.383822   -0.076073    1.810628
