16

N      -0.139704   -1.187061   -0.146313
C      -0.086513   -0.035298   -0.057872
C       0.023577    1.414589    0.048208
N      -0.291788    2.016161    1.402777
C       0.733971    1.511207    2.340695
C       1.119437    2.602326    1.425729
C       1.436194    2.042085    0.061882
C       2.695677    1.564369   -0.543885
N       2.035570    2.802764   -1.013361
H      -0.626708    1.885765   -0.694840
H       0.504388    1.770396    3.368974
H       1.137199    0.511189    2.200636
H       1.307739    3.623476    1.736537
H       3.640041    1.716596   -0.029312
H       2.648638    0.674483   -1.166506
H       1.551360    2.644760   -1.894089
