19

C      -0.033173    1.572546    0.068007
C       1.472793    1.906524   -0.018980
C       2.082731    0.863174    0.925545
C       1.510941   -0.298412    0.112040
C      -0.020001    0.000722   -0.024820
C      -0.321535   -0.464973   -1.435843
C       0.781498   -0.425857   -2.181577
C       1.940837    0.059995   -1.333381
O       1.991407    1.515552   -1.302844
H      -0.441161    1.920482    1.022981
H      -0.606549    2.032652   -0.739312
H       1.731523    2.954034    0.142999
H       3.175215    0.894553    0.940277
H       1.696963    0.918040    1.947477
H       1.751367   -1.317462    0.414194
H      -0.640628   -0.465824    0.743475
H      -1.321039   -0.707726   -1.779440
H       0.857921   -0.629051   -3.242510
H       2.924998   -0.303696   -1.643780
