17

N       0.108552    1.523451    0.035276
C       0.056923    0.061830    0.038980
C       0.655878   -0.553419   -1.172057
N       1.143476   -1.040334   -2.102492
C       0.723334   -0.489283    1.290849
C      -0.136085   -1.202147    2.326634
O      -1.481807   -1.407037    2.044658
C       0.857103   -1.987494    1.516431
O       0.255648   -2.880181    0.623809
H       1.064003    1.840354   -0.103488
H      -0.435647    1.890763   -0.739403
H      -0.997726   -0.234328    0.065895
H       1.543312    0.119314    1.659935
H       0.057805   -1.008298    3.377114
H      -1.526213   -2.204869    1.497809
H       1.767283   -2.352752    1.987965
H       0.672461   -2.799301   -0.243445
