17

O       0.271278    1.125742   -0.532689
C       0.131777   -0.113119    0.116961
C       0.018743   -0.106349    1.677645
C      -1.274421   -0.918615    1.518127
O      -1.960929   -1.560447    2.260456
C      -1.305603   -0.687970    0.007479
C      -2.448948    0.151063   -0.621299
O      -2.813986   -0.921528   -1.509235
C      -1.771141   -1.764426   -0.987547
H       1.172911    1.438547   -0.409478
H       0.877857   -0.840124   -0.233529
H       0.818920   -0.557623    2.269066
H      -0.188633    0.901663    2.054021
H      -3.263280    0.414888    0.063583
H      -2.100684    1.039827   -1.156055
H      -1.032369   -2.037246   -1.752402
H      -2.168819   -2.671731   -0.516426
