18

O      -0.053734    1.418440   -0.045906
C      -0.001156    0.016187    0.025176
C       0.240143   -0.677103    1.401376
C      -0.704389   -1.796606    0.860445
C      -1.380157   -0.681133    0.000253
C       0.097011   -2.690804   -0.061364
C       0.878874   -2.110208   -0.971867
C       0.922695   -0.600014   -1.042116
H       0.848026    1.754251   -0.098256
H       1.258452   -0.961490    1.679295
H      -0.228076   -0.095489    2.199594
H      -1.320361   -2.344574    1.572747
H      -2.102884   -0.100363    0.578791
H      -1.803625   -0.964191   -0.966189
H       0.022692   -3.769691    0.032203
H       1.483353   -2.681673   -1.669787
H       0.615892   -0.242000   -2.034679
H       1.953110   -0.239460   -0.891915
