20

C      -0.065184    1.443786   -0.313760
C      -0.037378    0.013202   -0.042859
C      -0.007041   -1.169812    0.179468
C       0.002503   -2.605714    0.452276
C      -1.360276   -3.253356    0.238565
C      -1.782175   -3.740621   -1.124971
C      -1.527527   -4.735179   -0.015536
C      -0.366622   -5.704725   -0.080939
H       0.759480    1.742331   -0.970827
H      -0.999733    1.738782   -0.804159
H       0.021080    2.028221    0.609227
H       0.752651   -3.089773   -0.184366
H       0.332623   -2.777503    1.486346
H      -2.141224   -2.792230    0.836759
H      -2.799259   -3.562671   -1.456642
H      -1.043440   -3.685629   -1.919609
H      -2.420025   -5.164420    0.433826
H       0.502538   -5.273814   -0.586282
H      -0.047634   -6.019358    0.919372
H      -0.648592   -6.605905   -0.636585
