18

C       0.022028    1.446366    0.060847
C      -0.003950   -0.040781    0.001230
C      -0.022955   -0.898082   -1.026136
C      -0.040493   -2.276749   -0.353915
C      -1.085749   -2.027220    0.783939
C      -0.011206   -0.978352    1.225529
C       1.068663   -2.033637    0.750294
C       1.327881   -3.140481    1.660108
N       1.547405   -4.018840    2.380351
H       0.911535    1.811320    0.590025
H       0.020106    1.883527   -0.941460
H      -0.845887    1.839876    0.605271
H      -0.019555   -0.705311   -2.089549
H      -0.037626   -3.174805   -0.968592
H      -2.060343   -1.640337    0.482385
H      -1.190636   -2.865059    1.478621
H       0.020660   -0.545942    2.224668
H       2.013393   -1.620508    0.390851
