19

C      -0.102527    1.572208    0.089371
C      -0.017175    0.041524    0.067797
C       0.793046   -0.510654    1.200345
O       0.354243   -0.230761    2.582009
C       1.562382   -1.044301    2.732878
C       1.137992   -2.006360    1.573983
C       2.391063   -2.383874    0.813462
C       3.138119   -1.273504    0.827752
C       2.307297   -0.268964    1.596699
H       0.887362    2.024506   -0.028801
H      -0.738117    1.938330   -0.721862
H      -0.518925    1.920763    1.038221
H      -1.022305   -0.394340    0.124017
H       0.430892   -0.310716   -0.869619
H       1.894126   -1.280044    3.747130
H       0.324900   -2.712225    1.737000
H       2.603674   -3.344177    0.364461
H       4.112870   -1.100855    0.392960
H       2.654973    0.745403    1.784932
