18

C      -0.120981    1.488370    0.012199
C      -0.007655   -0.023446    0.003937
O      -1.345820   -0.560036    0.011002
C      -1.449725   -1.888631    0.005751
N      -0.463028   -2.697958   -0.005030
C      -0.975006   -4.064074   -0.007549
C      -2.511510   -3.971794    0.004250
O      -3.291191   -4.884871    0.005329
C      -2.837356   -2.472217    0.013077
H       0.878271    1.933827    0.007027
H      -0.661830    1.844990   -0.868876
H      -0.648780    1.836294    0.904592
H       0.516201   -0.394238   -0.883213
H       0.529006   -0.402953    0.879666
H      -0.634813   -4.619453   -0.891134
H      -0.621859   -4.627558    0.865761
H      -3.416191   -2.190901    0.899042
H      -3.428708   -2.183203   -0.862081
