17

C      -0.002107    1.478761   -0.184514
O       1.394848    1.578657    0.152043
C       1.461691    0.190017    0.528803
C       0.016684   -0.054752    0.029093
N      -0.941019   -0.641407    0.934486
C      -1.761384   -1.720936    0.668969
C      -2.493623   -1.922698    1.807010
N      -2.152241   -1.001309    2.769785
C      -1.225195   -0.253799    2.217181
H      -0.644724    2.018910    0.521710
H      -0.210543    1.826237   -1.202316
H       2.257284   -0.346450    0.000278
H       1.588203    0.052976    1.609859
H      -0.024572   -0.617544   -0.903076
H      -1.736877   -2.221613   -0.285095
H      -3.244988   -2.675837    1.989002
H      -0.723811    0.577761    2.689616
