12

N      -0.056357    1.265695   -0.129664
C      -0.039463    0.015339   -0.018928
C      -1.242992   -0.899519    0.064610
C      -0.647989   -2.305175   -0.066934
C       0.852723   -2.098217    0.073087
O       1.721912   -2.905860    0.166892
O       1.121784   -0.740624    0.059703
H       0.889746    1.648791   -0.152860
H      -1.734317   -0.749366    1.030296
H      -1.966699   -0.641920   -0.709547
H      -0.988640   -3.019051    0.684852
H      -0.832810   -2.756445   -1.046686
