15

C      -0.047544    1.553244   -0.024393
C       0.083896    0.049218    0.051592
O       1.098962   -0.486400   -0.844850
C       1.722809   -1.234471    0.218024
C       0.766442   -0.622141    1.274208
N       1.923441    0.068674    1.835040
C       2.843353   -0.396510    0.903676
O       4.004333   -0.164310    0.722954
H       0.888680    2.044331    0.253987
H      -0.298482    1.854264   -1.045787
H      -0.845988    1.902597    0.639374
H      -0.876358   -0.439752   -0.162861
H       1.872379   -2.291336   -0.002909
H       0.157114   -1.179985    1.983639
H       1.972994    0.883285    2.431735
