20

C      -0.023275    1.623672    0.006437
C       0.055210    0.104378    0.017150
N       1.141500   -0.480679   -0.793214
C       1.375197   -0.525808   -2.211462
C       1.760103   -1.129416    0.252346
O       2.726035   -1.849341    0.306573
C       0.735379   -0.579159    1.224248
C       0.990495   -0.073937    2.614437
C       0.144814   -1.301851    2.398916
H       0.941556    2.064279    0.274050
H      -0.313711    1.997279   -0.981296
H      -0.774999    1.972581    0.722381
H      -0.921977   -0.333437   -0.230355
H       1.533392    0.475044   -2.630638
H       2.277116   -1.120303   -2.377476
H       0.540488   -0.997346   -2.746874
H       1.993092   -0.200743    3.008774
H       0.493356    0.841056    2.919866
H      -0.925308   -1.219676    2.558832
H       0.570196   -2.269299    2.644150
