18

C       0.064627    1.562370   -0.056456
C       0.021184    0.055517    0.043706
C      -1.281988   -0.566088   -0.426505
O      -1.285606   -1.998629   -0.428629
C      -0.776317   -2.705046    0.616704
O      -0.951908   -3.890008    0.661058
C       0.024584   -1.933293    1.655597
C       0.706368   -0.690011    1.124053
N       1.277292   -0.654666   -0.237331
H       1.025016    1.934254    0.306932
H      -0.051206    1.889577   -1.095861
H      -0.734049    2.023617    0.535294
H      -2.111599   -0.201627    0.195098
H      -1.497286   -0.286168   -1.462303
H      -0.662346   -1.652664    2.466430
H       0.735439   -2.642801    2.087700
H       1.296947   -0.145082    1.857266
H       1.099634   -1.528361   -0.729496
