14

C       0.077985   -1.166467   -0.312597
C       0.028887    0.015461   -0.097402
C      -0.022169    1.408931    0.156691
N      -1.197421    2.076361    0.179874
N      -0.740368    3.310452    0.448676
C      -0.977070    4.746496    0.695082
C       0.601793    4.846342    0.848612
C       0.582097    3.348874    0.569189
N       1.120161    2.161055    0.394225
H       0.122747   -2.210254   -0.502365
H      -1.404365    5.274876   -0.159478
H      -1.554675    4.948438    1.599323
H       1.092493    5.463282    0.093813
H       0.942985    5.139395    1.843005
