18

C      -0.084708    1.529026   -0.026720
C       0.118641    0.032019    0.037626
O       1.206941   -0.456797   -0.800665
C       1.770693   -1.195750    0.281623
C       2.258540   -2.578842    0.008252
C       2.230454   -0.268227    1.352224
C       0.745726   -0.623908    1.278747
C       0.032636   -1.239186    2.341528
N      -0.559398   -1.743470    3.200231
H       0.805246    2.073869    0.297835
H      -0.315054    1.828556   -1.053707
H      -0.926083    1.818863    0.610826
H      -0.801082   -0.497474   -0.237251
H       3.130922   -2.542769   -0.653630
H       2.554968   -3.072891    0.937117
H       1.483089   -3.175803   -0.479393
H       2.744211   -0.730213    2.188645
H       2.555572    0.737066    1.103397
