19

C       0.012680    1.563463   -0.220811
C       0.064506    0.057092   -0.093809
C       1.395815   -0.672439   -0.035904
O       2.589570    0.053429    0.027111
C       0.532423   -0.601173    1.181651
C       0.941209    0.095984    2.491966
C       0.346214   -1.113633    3.238212
O       0.265169   -1.416066    4.391938
C      -0.103391   -1.789471    1.925045
H       0.891491    2.025391    0.236086
H      -0.017895    1.868310   -1.273070
H      -0.878765    1.974383    0.265152
H      -0.724072   -0.473981   -0.623974
H       1.472208   -1.633837   -0.546326
H       2.783707    0.395518   -0.852112
H       2.016090    0.239583    2.635573
H       0.432215    1.039249    2.717593
H      -1.191844   -1.879184    1.836645
H       0.342328   -2.774013    1.747586
