20

C       0.012171    1.500194   -0.092464
N      -0.008350    0.042846    0.065863
C      -1.167877   -0.590526    0.844877
C      -2.587827   -0.552927    0.372457
C      -0.213664   -1.802328    1.035432
C       0.700332   -0.569509    1.280488
C       2.181643   -0.499264    1.484549
C      -0.479038    0.035542    2.084851
O      -0.696528    0.794823    2.980999
H       1.000903    1.794156   -0.457542
H      -0.718991    1.774785   -0.858810
H      -0.207579    2.072401    0.821816
H      -2.681904   -0.996104   -0.623748
H      -3.228831   -1.112275    1.060715
H      -2.960875    0.475399    0.332218
H      -0.403195   -2.466941    1.880394
H       0.009140   -2.328826    0.105227
H       2.716007   -0.934199    0.634272
H       2.511822    0.536870    1.609635
H       2.464123   -1.049358    2.387353
