19

C      -0.042815    1.412009   -0.084106
C       0.141697   -0.078197    0.068420
O       0.299446   -0.667678    1.107298
O       0.104844   -0.688007   -1.136467
C       0.242150   -2.116128   -1.116116
C       0.169130   -2.610673   -2.541319
C       0.215157   -4.142063   -2.736390
C      -1.146093   -3.944532   -3.433791
O      -1.161232   -2.539713   -3.102613
H       0.032648    1.888869    0.892253
H       0.713094    1.818718   -0.761426
H      -1.020953    1.621327   -0.526709
H       1.203850   -2.388898   -0.665219
H      -0.556034   -2.555045   -0.509370
H       0.883503   -2.050642   -3.159797
H       1.029484   -4.524039   -3.352609
H       0.170000   -4.712445   -1.805752
H      -1.138635   -4.107199   -4.518977
H      -2.000377   -4.477941   -3.001797
