18

C       0.055577    1.699767    0.084217
C       0.006809    0.181462    0.166012
C       0.326831   -0.345307    1.570262
N       0.297282   -1.794478    1.649864
C       1.360586   -2.552610    1.269208
O       2.404841   -2.102101    0.845356
O      -1.324595   -0.251090   -0.175995
C      -1.472357   -1.201305   -1.118250
O      -2.534484   -1.671217   -1.397975
H       1.054978    2.062192    0.342024
H      -0.183248    2.036826   -0.927487
H      -0.667014    2.147719    0.773126
H       0.720519   -0.263601   -0.537617
H       1.328369   -0.008862    1.851798
H      -0.394255    0.060445    2.285475
H      -0.553334   -2.253723    1.932038
H       1.170056   -3.635938    1.394893
H      -0.516014   -1.484590   -1.598320
