16

N       0.121727    1.390700    0.145368
C      -0.012506    0.004434    0.031590
C      -1.178886   -0.681938   -0.008077
C      -1.211645   -2.145600   -0.015002
O      -2.257926   -2.788873   -0.047672
C       0.109442   -2.776513   -0.025524
C       1.248411   -2.045578    0.014514
N       2.546992   -2.552316    0.112526
H       2.569767   -3.560884    0.048465
H       3.192619   -2.145427   -0.554587
N       1.200332   -0.662324    0.018367
H       0.771138    1.791464   -0.521779
H      -0.768579    1.866635    0.093658
H      -2.124274   -0.154698   -0.054146
H       0.153204   -3.857443   -0.084988
H       1.992034   -0.178682    0.416367
