15

C       0.052312    1.454192   -0.051229
N       0.016970    0.001230    0.013573
N      -0.074185   -0.638677   -1.184783
C      -0.061937   -1.925401   -1.153250
C       0.048811   -2.737809    0.081094
O       0.082837   -3.952383    0.039900
N       0.094953   -2.006599    1.260089
C       0.082420   -0.707457    1.185089
N       0.194072    0.025841    2.341869
H       0.917953    1.842100    0.493569
H       0.130722    1.723145   -1.103201
H      -0.862920    1.899768    0.358117
H      -0.131740   -2.436632   -2.108140
H       0.090487   -0.549968    3.164995
H      -0.258764    0.924402    2.393384
