20

C      -0.011748    0.946587   -0.310608
O      -0.426187   -0.244269    0.342859
C       0.472223   -0.649906    1.330762
C       0.363711   -2.074785    1.785160
C       1.559675   -1.620576    0.948350
N       1.682665   -1.978985   -0.437421
C       2.063537   -3.362517   -0.678581
C       2.448821   -3.567970   -2.133326
O       2.310451   -4.599966   -2.735900
H       0.957232    0.816950   -0.810172
H      -0.775977    1.184672   -1.053761
H       0.066887    1.782261    0.399991
H       0.700479    0.119933    2.068695
H       0.493234   -2.295135    2.839164
H      -0.382554   -2.678093    1.278591
H       2.516140   -1.529093    1.457812
H       0.806904   -1.763194   -0.904033
H       2.968231   -3.576179   -0.088923
H       1.315774   -4.119282   -0.393490
H       2.894525   -2.662532   -2.604531
