19

C      -0.034822    1.523147   -0.037962
C      -0.041109    0.018650    0.038988
C      -1.308319   -0.741448   -0.340966
C      -1.114750   -2.174603    0.203098
C      -0.187869   -2.021522    1.430822
C       0.639019   -0.774653    1.126316
N       1.239499   -0.649381   -0.217904
C       1.371089   -0.160267    2.205600
N       1.927537    0.326465    3.094917
H       0.910618    1.926297    0.330608
H      -0.163196    1.851083   -1.075249
H      -0.852511    1.946601    0.554354
H      -2.164689   -0.253805    0.139470
H      -1.493488   -0.721047   -1.420632
H      -2.061685   -2.652548    0.462760
H      -0.646612   -2.813685   -0.552189
H      -0.765972   -1.845237    2.344385
H       0.435612   -2.903492    1.607568
H       1.132611   -1.519120   -0.735039
