13

C       0.052400    1.506484    0.047774
C       0.025063    0.053713   -0.031891
C       0.001379   -1.146510   -0.097566
C      -0.028332   -2.606887   -0.177357
C      -1.371943   -3.163206   -0.030742
C      -2.479612   -3.627059    0.089829
C      -3.732600   -4.152176    0.226196
N      -4.797864   -4.600643    0.342016
H       0.679626    1.846249    0.878741
H       0.449360    1.946643   -0.873118
H      -0.954098    1.909241    0.203149
H       0.388321   -2.944438   -1.136981
H       0.618640   -3.043839    0.596542
