18

C      -0.015115    1.581174    0.278797
C       1.494752    1.540604   -0.091801
C       2.605723    0.902682    0.872714
C       2.379618    0.795355    2.405328
C       1.033117    0.060989    2.409662
C       0.846437   -0.526790    1.217416
C      -0.022588    0.044661    0.065865
N       1.253769    0.182478   -0.778365
C       2.074243   -0.431615    0.330977
H      -0.348043    1.980029    1.238470
H      -0.550922    2.084883   -0.533599
H       1.863231    2.356089   -0.715978
H       3.609862    1.220362    0.574348
H       3.221599    0.284156    2.893963
H       2.270094    1.765427    2.904650
H       0.235818    0.358704    3.083803
H      -0.885284   -0.464480   -0.365368
H       2.702929   -1.297082    0.109299
