19

C      -0.826137    1.191546   -2.508537
C      -0.432350    1.189310   -1.372804
C       0.073597    1.206324   -0.003509
C       1.442452    1.890737    0.097151
C       1.499091    3.448526   -0.080250
C       1.085692    3.558669    1.423450
C       1.977671    2.296572    1.501410
O       3.286531    2.804453    1.197032
C       3.011491    3.656249    0.054662
H      -1.183981    1.185133   -3.508121
H      -0.665783    1.687703    0.645700
H       0.166243    0.174665    0.361173
H       2.166862    1.331429   -0.502525
H       0.978219    3.966317   -0.884225
H       1.424684    4.431163    1.986654
H       0.026133    3.380942    1.602548
H       2.033440    1.625981    2.358326
H       3.580462    3.310464   -0.815960
H       3.295764    4.690471    0.281136
