18

C      -0.080233    1.567967    0.101056
C       0.037712    0.056400   -0.000556
O      -1.221559   -0.572310   -0.149845
C       1.120555   -0.526558   -0.992870
C       1.758839   -1.256273    0.184617
N       2.132157   -0.220294    1.189083
C       0.751425   -0.674200    1.154482
C       2.311657   -2.609975    0.245401
O       2.457130   -3.339882   -0.705739
H       0.891296    2.013201    0.327390
H      -0.436065    1.989000   -0.847356
H      -0.792232    1.841657    0.885743
H      -1.636186   -0.222124   -0.945755
H       0.664492   -1.217262   -1.703132
H       1.767575    0.187925   -1.505717
H       2.602883   -0.681907    1.968925
H       0.268964   -1.147871    2.001642
H       2.581721   -2.935268    1.279990
