17

C      -0.057344    1.439204   -0.090009
C       1.340368    0.807164   -0.042007
O       2.131268    0.442781   -1.147241
C       1.556550   -0.758902   -1.621414
C       1.094510   -1.929036   -0.717682
C       0.977659   -1.890098    0.822100
O      -0.028259   -0.898633    1.135541
C       0.111819   -0.039609    0.036451
C       0.128745   -0.886021   -1.231212
H      -0.306093    2.024698    0.788952
H      -0.482236    1.806214   -1.018735
H       1.913676    1.003621    0.857083
H       1.935947   -1.019667   -2.602837
H       1.158867   -2.905419   -1.186144
H       0.633099   -2.851116    1.213314
H       1.924037   -1.625623    1.310737
H      -0.738913   -1.034267   -1.863497
