16

O      -0.214040    0.002061    0.013876
C      -0.090896    1.198600    0.035502
C       1.242645    1.922968   -0.035356
N       2.371720    1.034950   -0.162950
C       3.234275    1.304652   -1.205953
O       4.256771    0.708943   -1.450939
C       2.639561    2.465419   -1.965294
C       1.304337    2.158029   -2.609915
C       1.350120    2.834422   -1.268510
H      -0.968379    1.878214    0.120029
H       1.307961    2.543831    0.875125
H       2.410005    0.152655    0.322542
H       3.309862    3.185636   -2.414476
H       1.021615    2.767537   -3.460415
H       0.986604    1.121725   -2.668553
H       1.027577    3.862621   -1.171480
