21

C       0.105176    1.236407   -0.323191
O      -0.103528   -0.002739    0.326569
C      -1.387768   -0.543375    0.170766
C      -2.485988    0.160874    0.936650
C      -1.687707   -1.211866   -1.158539
C      -1.377561   -2.033816    0.062749
C      -0.192407   -2.955536    0.316916
O      -1.041254   -3.872414    1.048951
C      -2.215868   -3.070931    0.801804
H       1.164780    1.477471   -0.210007
H      -0.137077    1.178586   -1.393777
H      -0.486888    2.046577    0.124312
H      -2.646519    1.179454    0.568244
H      -3.434412   -0.374718    0.838584
H      -2.232663    0.218729    2.000351
H      -2.708355   -1.198633   -1.529941
H      -0.923149   -1.163786   -1.927911
H       0.246949   -3.427316   -0.571847
H       0.605672   -2.537094    0.940029
H      -2.693266   -2.739713    1.733778
H      -2.956544   -3.604902    0.190618
