17

C       0.012583    1.526277    0.018392
C      -0.019830    0.025912   -0.007103
C       0.041513   -0.659813   -1.157767
C       0.047527   -2.120971   -1.331005
O       0.468479   -2.654785   -2.339885
N      -0.509513   -2.928982   -0.325439
C      -1.331083   -2.567045    0.742190
N      -1.251304   -1.552585    1.495961
C      -0.093335   -0.672309    1.335716
H       0.857590    1.885184    0.619572
H       0.092362    1.953866   -0.983418
H      -0.894671    1.917146    0.495811
H       0.160293   -0.136106   -2.100934
H      -0.594165   -3.884258   -0.650162
H      -2.125097   -3.292015    0.929133
H       0.829347   -1.255684    1.483585
H      -0.133157    0.073180    2.133892
