20

C       1.101518    1.275812   -1.065778
C       0.634298   -0.044598   -0.488640
N       1.437181   -0.894238    0.380788
C       2.774238   -0.507024    0.811549
C       0.254846   -0.232623    0.962930
C       0.379840    0.899646    1.978126
O       0.670449    0.412025    3.275480
C      -0.827432   -1.131641    1.305352
C      -1.741164   -1.838944    1.642224
H       1.645004    1.902720   -0.357829
H       1.758418    1.095583   -1.923798
H       0.240156    1.847467   -1.426034
H       0.046347   -0.625615   -1.199008
H       2.972024    0.572477    0.853875
H       2.948710   -0.918345    1.808902
H       3.497397   -0.952527    0.121056
H       1.195598    1.576301    1.722734
H      -0.553209    1.483877    1.965658
H      -0.002599   -0.246612    3.486784
H      -2.542656   -2.482022    1.910701
