20

C      -0.049155    1.568804    0.202432
C      -0.093174    0.042551    0.119993
O      -0.044452   -0.392031   -1.239822
C       0.999648   -0.611187    0.984521
C       0.820545   -2.108703    1.187417
C       1.082057   -3.017875    0.005513
C       0.937134   -2.654486    2.549667
O      -0.347692   -2.440683    1.960763
H       0.927992    1.950204   -0.121910
H      -0.816022    2.001412   -0.445659
H      -0.219590    1.918972    1.225306
H      -1.064268   -0.310617    0.483834
H       0.769955   -0.050273   -1.626019
H       1.984085   -0.410430    0.537665
H       0.993498   -0.124104    1.965788
H       2.129361   -2.942772   -0.309420
H       0.876105   -4.057109    0.274162
H       0.455015   -2.733722   -0.841719
H       1.217297   -3.698311    2.690277
H       1.186653   -1.996484    3.381974
