19

O       0.095436    1.463449    0.194453
C       0.048246    0.082296    0.463923
C      -1.307964   -0.525487    0.118863
C      -2.508443    0.306589    0.254573
O      -1.908762    0.086724   -1.037060
C      -1.379432   -2.029810    0.184887
C      -2.620264   -2.754885   -0.381878
O      -1.800006   -3.588476   -1.224856
C      -0.616262   -2.838658   -0.895171
H      -0.302711    1.570490   -0.680074
H       0.830763   -0.463921   -0.090130
H       0.252849   -0.052584    1.532233
H      -3.481168   -0.161776    0.391767
H      -2.408194    1.319154    0.636295
H      -1.128639   -2.355119    1.199040
H      -3.213700   -3.342548    0.327039
H      -3.280989   -2.110247   -0.973777
H      -0.265913   -2.234415   -1.742704
H       0.198664   -3.484082   -0.549206
