18

O       0.341530    1.344783    0.364824
C       0.025244   -0.003007    0.520668
C      -1.134666   -0.419296   -0.362644
O      -1.671356    0.409744   -1.073415
C      -1.549785   -1.873106   -0.384971
N      -3.005384   -2.106360   -0.410041
C      -2.893393   -3.098617   -1.501161
C      -1.468804   -2.565232   -1.813085
O      -1.341527   -1.710556   -2.904913
H      -0.293544    1.680530   -0.288036
H       0.884564   -0.653089    0.277982
H      -0.244442   -0.238103    1.565537
H      -0.994722   -2.444799    0.372752
H      -3.411117   -2.430530    0.459796
H      -2.888653   -4.149112   -1.178534
H      -3.628537   -2.972960   -2.302940
H      -0.687740   -3.321400   -1.906529
H      -1.855373   -0.910245   -2.721100
