21

C      -0.009652    1.518172    0.018199
C       0.031665    0.003636    0.002512
C       0.618137   -0.652084   -1.275767
C       0.039596   -2.112371   -1.273113
C      -0.817087   -2.167503    0.012792
C       0.130234   -2.135927    1.234307
C       0.708163   -0.675444    1.222803
C      -1.327901   -0.721088    0.044781
O      -2.439719   -0.271942    0.089333
H       0.998468    1.945383   -0.013815
H      -0.567574    1.902300   -0.841562
H      -0.504536    1.885721    0.922643
H       0.295309   -0.105475   -2.167113
H       1.712107   -0.635459   -1.261944
H      -0.576183   -2.289982   -2.159035
H       0.825380   -2.872921   -1.262197
H      -1.583318   -2.940542    0.033219
H      -0.419990   -2.330841    2.158882
H       0.912827   -2.895419    1.152234
H       1.798324   -0.657572    1.130794
H       0.450395   -0.145934    2.145127
