16

C       0.232249    1.383317    0.201630
N      -0.341927    0.180596   -0.396819
C       0.492515   -0.429187   -1.373640
C       1.624458   -1.365770   -1.070670
C       0.317897   -1.929826   -1.677366
C      -0.535118   -2.686060   -0.796216
N      -1.211087   -3.254014   -0.049337
C       0.329617   -2.348359   -3.055823
N       0.363561   -2.659567   -4.168524
H       1.201676    1.219797    0.700029
H       0.377208    2.142624   -0.574275
H      -0.472315    1.785108    0.933463
H      -0.631657   -0.481751    0.314161
H       0.611955    0.175970   -2.269078
H       2.491384   -1.389430   -1.720735
H       1.802673   -1.642194   -0.037681
