17

C      -0.018258    1.536463   -0.022070
C      -0.007840    0.040406    0.030164
C      -0.029824   -0.812926   -1.041050
O      -0.011371   -2.133745   -0.654905
C       0.022700   -2.096616    0.692891
C       0.026799   -0.820584    1.173179
C       0.065564   -0.898098    2.672409
C       0.080872   -2.404257    2.913554
C       0.055912   -3.087728    1.747544
H       0.875179    1.960261    0.450927
H      -0.052220    1.896991   -1.053891
H      -0.885768    1.949738    0.505291
H      -0.058291   -0.643508   -2.105121
H       0.951876   -0.419942    3.110720
H      -0.803083   -0.430757    3.155454
H       0.108593   -2.838393    3.903948
H       0.059543   -4.161275    1.620357
