19

C       0.137284    1.543074   -0.001938
C       0.068738    0.029449   -0.036302
C      -1.195157   -0.547975    0.576993
C       0.634977   -0.773648   -1.207148
C       1.648543   -0.133034   -2.128770
C       2.829656    0.233448   -1.222166
O       3.837303    0.805471   -1.511517
O       2.566883   -0.178241    0.057886
C       1.306775   -0.812113    0.145928
H       1.084423    1.943154   -0.368562
H      -0.666812    1.976475   -0.607164
H       0.010837    1.903478    1.024705
H      -2.082306   -0.219150    0.024011
H      -1.186062   -1.642708    0.567117
H      -1.308101   -0.222920    1.617133
H       0.063074   -1.619995   -1.568729
H       2.000772   -0.827293   -2.897839
H       1.308603    0.770394   -2.643118
H       1.327089   -1.671850    0.804999
