20

C      -0.218024    1.711446   -0.040646
C      -0.165103    0.196882   -0.053679
C       0.614804   -0.591481   -1.080187
C       1.418432    0.025314   -2.208501
O       2.337407   -0.893228   -2.754099
C       1.076212   -0.565471    0.364824
N       2.239020    0.182201    0.756735
C       3.513735   -0.146630    0.431238
O       3.849265   -1.025773   -0.340731
H       0.737635    2.165698   -0.311718
H      -0.968069    2.076060   -0.749719
H      -0.498773    2.084423    0.951357
H      -1.095191   -0.264893    0.267721
H       0.173380   -1.539330   -1.376262
H       0.738986    0.305837   -3.022255
H       1.914090    0.949538   -1.874411
H       2.939122   -1.140683   -2.033590
H       0.935517   -1.480506    0.934908
H       2.123023    0.898808    1.457871
H       4.251040    0.494212    0.951702
