21

C      -0.213745    1.534964   -0.033748
C       0.059425    0.027508    0.078554
C       0.755879   -0.527552   -1.131810
C       2.210459   -0.296945   -1.525369
O       2.319305   -1.634757   -2.087145
C       0.983232   -1.938797   -1.662168
C       0.682450   -3.316330   -1.175225
C       0.033134   -1.009352   -2.379107
O      -1.337891   -1.202307   -2.174045
H       0.714762    2.102313   -0.161980
H      -0.858389    1.749366   -0.891691
H      -0.710629    1.911195    0.865789
H       0.667425   -0.172085    0.970724
H      -0.886749   -0.504418    0.214738
H       2.428532    0.481686   -2.266580
H       2.881799   -0.184011   -0.664567
H       1.278667   -3.569525   -0.293145
H      -0.376510   -3.398370   -0.915591
H       0.906289   -4.053661   -1.955585
H       0.316749   -0.621109   -3.361105
H      -1.620750   -1.938663   -2.726511
