19

C       0.614613    1.163645   -0.387875
C       0.271920   -0.191084    0.175582
O       1.354935   -1.039421    0.583682
C       0.428172   -0.588441    1.588990
C       0.983929    0.326620    2.655748
C      -0.465359   -1.703503    2.096955
O       0.233639   -2.542049    3.026139
C       0.934978   -3.577835    2.510866
O       1.597011   -4.299313    3.192720
H       1.368775    1.679377    0.208328
H       1.002955    1.055237   -1.405726
H      -0.282494    1.790059   -0.437894
H      -0.495291   -0.721389   -0.394798
H       0.180355    0.906837    3.122433
H       1.466938   -0.266683    3.436927
H       1.721580    1.015676    2.244098
H      -1.321690   -1.304080    2.647449
H      -0.835640   -2.299988    1.255638
H       0.814117   -3.675941    1.416994
