16

N       0.158780    0.989084    0.181663
C       0.086594   -0.336539   -0.025709
O       1.043443   -1.069910   -0.224778
C      -1.367542   -0.854485    0.021159
O      -2.276371   -0.057189    0.140464
C      -1.644355   -2.342094   -0.078854
O      -3.023530   -2.563469    0.051511
C      -1.133705   -2.974685   -1.413880
O       0.183013   -3.438635   -1.358521
H       1.052104    1.452173    0.159764
H      -0.694024    1.510542    0.309886
H      -1.083942   -2.845473    0.726186
H      -3.436776   -1.695314    0.167415
H      -1.785784   -3.837094   -1.577183
H      -1.307413   -2.271959   -2.247037
H       0.738072   -2.698775   -1.064637
