20

C       0.019858    1.535190   -0.151599
C       0.002654    0.023340    0.020843
C       1.304533   -0.767959   -0.038459
C       0.570815   -0.657074    1.268401
C       1.119918    0.130763    2.437586
C       2.035199   -0.720742    3.314364
O       2.499756    0.103888    4.369891
C      -1.156678   -0.615339   -0.554855
N      -2.092244   -1.118002   -1.014712
H       0.938038    1.964907    0.252889
H      -0.036341    1.797808   -1.211964
H      -0.829519    1.999910    0.357801
H       1.306434   -1.714590   -0.565427
H       2.204946   -0.175524   -0.167042
H       0.022280   -1.549249    1.559574
H       1.691123    1.000032    2.097506
H       0.301811    0.512565    3.059570
H       1.477287   -1.590011    3.698905
H       2.869317   -1.110834    2.709269
H       3.063542   -0.424900    4.941803
