16

C      -0.152222   -1.269049    0.011385
C      -0.118514   -0.067139   -0.001096
C      -0.069462    1.387094   -0.006268
C      -0.460959    2.005720    1.417057
N       0.796782    2.086994    2.209762
C       1.686732    2.091719    1.317687
O       3.010348    1.763822    1.247988
C       2.756208    1.266242   -0.133582
C       1.365842    1.963579   -0.129611
H      -0.193425   -2.330243    0.024090
H      -0.730056    1.770715   -0.789912
H      -0.919234    2.994683    1.288082
H      -1.174839    1.366054    1.939167
H       3.501525    1.657749   -0.826375
H       2.730845    0.175244   -0.131122
H       1.381485    2.901658   -0.688077
