25

C      -0.124866    1.559095   -0.036462
C      -0.010124    0.027109   -0.008835
C      -1.432207   -0.549100    0.114471
C       0.725320   -0.536031   -1.281947
C       1.941321   -1.297755   -0.709973
C       2.949989   -0.270632   -0.139949
C       2.257106    0.211899    1.174800
C       0.898448   -0.523068    1.141266
C       1.342768   -1.894121    0.581207
H       0.830010    2.047988   -0.247463
H      -0.827414    1.872938   -0.816724
H      -0.498749    1.948583    0.917838
H      -2.036504   -0.274150   -0.757472
H      -1.433627   -1.640650    0.183574
H      -1.937806   -0.158084    1.005030
H       0.069881   -1.214028   -1.839436
H       1.025455    0.260430   -1.970884
H       2.385570   -2.006877   -1.411878
H       3.915147   -0.741305    0.070698
H       3.137350    0.547267   -0.842752
H       2.825166   -0.109595    2.053550
H       2.163891    1.297221    1.239673
H       0.389279   -0.539195    2.108674
H       0.523204   -2.593533    0.397661
H       2.084781   -2.390346    1.215273
