27

C      -0.020244    1.562207   -0.024342
C       0.014834    0.031509   -0.026396
C       0.720085   -0.546945   -1.257028
C       0.755515   -2.069083   -1.259010
O       1.414588   -2.508952   -2.426408
C       1.505097   -3.913637   -2.528057
C       2.190249   -4.282307   -3.843780
C       2.422766   -5.796181   -3.915082
C       1.388539   -3.773597   -5.047951
H       0.992210    1.980596   -0.037802
H      -0.547126    1.946606   -0.904659
H      -0.529003    1.949034    0.864109
H       0.517257   -0.323371    0.883324
H      -1.010891   -0.357484    0.023133
H       0.218246   -0.208364   -2.172023
H       1.750013   -0.173005   -1.311194
H       1.278534   -2.441889   -0.360380
H      -0.270114   -2.477232   -1.221859
H       2.074923   -4.320875   -1.674612
H       0.497523   -4.366910   -2.487359
H       3.166419   -3.778898   -3.842540
H       1.471793   -6.342287   -3.900764
H       2.943637   -6.067912   -4.838480
H       3.025742   -6.153206   -3.073156
H       1.919892   -3.967313   -5.985407
H       0.415069   -4.276162   -5.107275
H       1.208820   -2.699331   -4.966115
