20

C      -0.038044    1.530035   -0.009645
C       0.114258    0.022936   -0.057379
C       0.714074   -0.768510   -1.187097
C       1.390977   -0.739631    0.192670
C       2.616027   -0.028023   -0.401732
O       3.832873   -0.730710   -0.278122
C       1.927339   -0.059850   -1.820348
C       2.659830   -0.887308   -2.870571
H       0.808388    2.056056   -0.457758
H      -0.940052    1.843752   -0.546476
H      -0.129553    1.877234    1.025280
H      -0.739525   -0.494942    0.378212
H       0.170820   -1.578843   -1.662707
H       1.458628   -1.510209    0.954032
H       2.830352    0.970211   -0.007450
H       3.672023   -1.652022   -0.507833
H       1.711734    0.930694   -2.238191
H       2.831724   -1.917719   -2.538153
H       2.067038   -0.943809   -3.789580
H       3.631260   -0.448812   -3.115166
