13

O      -0.016915    1.256241    0.009202
C       1.219457    1.755321    0.000023
C       2.124668    0.726590   -0.014561
C       3.532106    0.554848   -0.029176
C       3.985339   -0.732426   -0.040841
C       3.054425   -1.827760   -0.037996
N       1.750882   -1.725790   -0.024790
C       1.284422   -0.444834   -0.013048
N      -0.004885   -0.130207    0.001258
H       1.296609    2.831467    0.005352
H       4.208740    1.402480   -0.030945
H       5.046191   -0.953732   -0.052377
H       3.455592   -2.840039   -0.047612
