23

C      -0.430613    1.520767   -0.011841
C       0.020380    0.065433   -0.079587
C      -1.111653   -0.898975    0.243653
C       0.895660   -0.288485   -1.309260
C       2.063313   -0.352772   -0.301225
O       1.155885   -0.156543    0.811089
C       2.853695   -1.622655   -0.199708
C       4.163400   -1.744913   -0.943160
C       4.156311   -1.639471    0.559303
H       0.399802    2.197075   -0.235265
H      -1.235496    1.714964   -0.729469
H      -0.800606    1.756939    0.991092
H      -1.932743   -0.788411   -0.473349
H      -0.759618   -1.933759    0.212043
H      -1.504892   -0.703464    1.246789
H       0.655681   -1.250600   -1.767808
H       0.966292    0.473720   -2.087384
H       2.756480    0.498462   -0.386233
H       2.244305   -2.520316   -0.135855
H       4.406160   -2.699466   -1.396067
H       4.506839   -0.886141   -1.511208
H       4.490529   -0.708660    1.005409
H       4.396750   -2.522075    1.141015
