16

C      -0.138316    1.556938   -0.009004
C       0.010546    0.031717    0.008036
C      -1.306577   -0.570005   -0.208908
N      -2.358762   -1.016652   -0.382044
C       1.198111   -0.653952   -0.790189
C       2.149658   -0.161374    0.354961
C       0.885045   -0.662978    1.135076
C       0.977546   -1.852254    0.156435
O       0.975759   -3.039302    0.150576
H       0.805522    2.079150    0.145795
H      -0.552120    1.878655   -0.968695
H      -0.833704    1.870703    0.774409
H       1.359566   -0.626965   -1.865083
H       3.068521   -0.729447    0.501705
H       2.341293    0.908355    0.391165
H       0.697574   -0.646036    2.205946
