19

C      -0.014420    1.610841   -0.030181
C      -0.002794    0.098494   -0.034543
C       1.285670   -0.664045   -0.238935
C       0.598792   -0.697596    1.100911
N       1.222752    0.030556    2.175828
C       0.628200   -0.059517    3.493347
C       1.945552   -0.724529    3.209797
C       2.001425   -2.165903    3.170249
N       2.068997   -3.320036    3.128450
H       0.870404    2.007833    0.472344
H      -0.032694    1.999860   -1.053811
H      -0.897138    2.000045    0.489478
H      -0.887791   -0.356971   -0.471448
H       1.285729   -1.566738   -0.838833
H       2.197596   -0.079155   -0.295165
H       0.094288   -1.623667    1.379880
H       0.615633    0.852490    4.083267
H      -0.229236   -0.716089    3.628760
H       2.864854   -0.258993    3.553750
