13

O      -0.138561    0.029331   -0.229030
C      -0.120451    1.198344    0.085787
C       1.110819    1.979173    0.059899
C       2.159333    2.577504   -0.003817
C       3.336953    3.263890   -0.074233
N       4.335728    3.853689   -0.134729
N      -1.206115    1.902755    0.570771
C      -1.804383    3.075707   -0.045202
C      -2.542495    1.770113    0.039139
H      -2.055097    3.886384    0.631840
H      -1.426175    3.381520   -1.016967
H      -2.653289    1.181475   -0.867089
H      -3.331144    1.647518    0.775007
