19

C       0.216765    1.469553    0.059698
C      -0.041194   -0.036776   -0.033948
C       0.679558   -0.667082   -1.283153
C       1.885667   -1.240998   -0.618059
C       1.748151   -1.280149    0.741356
N       0.497581   -0.765690    1.159789
C       2.876131   -1.941830    1.292162
C       3.669580   -2.291819    0.212105
N       3.054867   -1.880748   -0.949380
H       1.292854    1.671444    0.094257
H      -0.204732    1.994471   -0.804451
H      -0.243051    1.891836    0.960305
H      -1.119993   -0.212014   -0.095088
H       0.047981   -1.433548   -1.754288
H       0.877654    0.097118   -2.045138
H       0.554021   -0.153852    1.967123
H       3.099708   -2.143254    2.328219
H       4.628446   -2.784339    0.182644
H       3.432307   -1.998061   -1.872333
