15

N      -0.022356    1.355880    0.333794
C      -0.085033    0.014157    0.105402
N      -1.111421   -0.739661    0.215669
C      -0.660394   -2.101690   -0.046751
C      -1.012763   -2.626193   -1.470727
C       0.413362   -2.254431   -1.920382
O       0.974382   -2.201808   -2.972719
C       0.840851   -1.918068   -0.456464
O       1.128899   -0.539429   -0.214995
H       0.719533    1.849529   -0.136404
H      -0.914885    1.822417    0.352682
H      -0.902884   -2.776801    0.776673
H      -1.192240   -3.705689   -1.528578
H      -1.823064   -2.101971   -1.983163
H       1.630146   -2.538511   -0.028175
