15

C      -0.028161    1.510712   -0.067760
C       1.533993    1.353357   -0.007071
C       1.150002    0.164124    0.945308
N      -0.095930   -0.024748    0.056640
C       0.600792   -0.343853   -1.178020
C       0.689978   -1.098994   -2.286047
O       1.774720   -0.692603   -3.006273
N       2.426896    0.382561   -2.335526
C       1.705267    0.550170   -1.273722
H      -0.455331    1.972418    0.825280
H      -0.481617    1.912653   -0.975222
H       2.221825    2.153157    0.256129
H       1.808365   -0.704706    0.993867
H       0.845649    0.485513    1.943931
H       0.128975   -1.912774   -2.715781
