25

C      -0.046560    1.576534    0.197398
C      -0.015015    0.043760    0.052373
C       0.682637   -0.558641    1.288086
C      -1.455914   -0.497880   -0.003121
C       0.751765   -0.400625   -1.230547
C       0.099770   -0.008851   -2.588898
C       1.272674    0.262170   -3.565015
C       2.437515    0.501065   -2.635817
C       2.159466    0.142965   -1.383971
H       0.964096    1.994920    0.236818
H      -0.572381    2.058379   -0.632772
H      -0.564170    1.861179    1.119891
H       0.135493   -0.304940    2.202689
H       0.731221   -1.651410    1.221792
H       1.704414   -0.184155    1.404421
H      -2.016126   -0.076212   -0.843113
H      -1.464433   -1.588821   -0.108630
H      -1.998833   -0.248480    0.915267
H       0.812980   -1.499997   -1.171798
H      -0.586114   -0.775028   -2.958223
H      -0.482571    0.909613   -2.467672
H       1.470324   -0.603681   -4.213378
H       1.076434    1.105826   -4.236789
H       3.395448    0.875831   -2.980642
H       2.864905    0.180596   -0.561375
