13

N       0.011373    1.416952    0.164730
C      -0.049636    0.042743    0.062440
C      -1.174953   -0.700363    0.037687
F      -2.409964   -0.199605    0.044950
N      -1.120669   -2.074220   -0.003916
C       0.092599   -2.688061   -0.020600
N       1.225327   -2.070979   -0.015441
C       1.247305   -0.674043    0.009254
O       2.284636   -0.030892   -0.019461
H       0.938969    1.745421   -0.078538
H      -0.745097    1.939294   -0.250117
H      -1.982733   -2.597041   -0.016419
H       0.057950   -3.774408   -0.043233
