18

C      -0.197713    1.515326   -0.150384
C       0.052643    0.031415    0.054236
O       0.983024   -0.474531   -0.961540
C       2.096445   -1.052733   -0.238105
C       1.505683   -1.770880    0.970388
N       2.459700   -1.209475    2.053932
C       1.247916   -0.556166    2.744099
C       0.873083   -0.381301    1.264793
C       2.378068   -0.131961    0.943690
H       0.726055    2.088135   -0.026693
H      -0.582410    1.700817   -1.156932
H      -0.935197    1.881572    0.571894
H      -0.883237   -0.534144   -0.033286
H       2.817304   -1.446752   -0.952447
H       1.034236   -2.748222    1.073277
H       0.658985   -1.255214    3.345360
H       1.503552    0.337568    3.320859
H       2.929934    0.804760    1.017536
