20

C       0.710522    0.092144   -0.870009
N      -0.137747    0.117260    0.315351
C      -0.132877    1.413800    0.977774
C      -1.398003   -0.476510    0.182138
N      -2.511029    0.198447    0.471844
N      -3.503568   -0.704518    0.306153
C      -3.049638   -1.917068   -0.085503
C      -1.677130   -1.830515   -0.180252
C      -0.719083   -2.933476   -0.508051
H       1.733189    0.361862   -0.586988
H       0.734448   -0.907029   -1.306282
H       0.373463    0.798734   -1.648412
H      -0.583025    2.211079    0.364597
H      -0.697540    1.352710    1.909412
H       0.902655    1.689591    1.201458
H      -4.449486   -0.428281    0.499665
H      -3.716786   -2.749820   -0.249004
H      -0.346833   -2.884757   -1.539379
H       0.154528   -2.901275    0.152021
H      -1.193849   -3.911459   -0.385008
