16

O       0.248336    1.270678   -0.328863
C       0.117169   -0.100835   -0.059298
C       0.283855   -0.509107    1.440799
C      -1.261372   -0.610421    1.580461
N      -1.939953    0.600324    1.960858
C      -2.602159    1.223625    0.927867
O      -3.314387    2.184284    0.978345
O      -2.329802    0.537193   -0.234212
C      -1.397874   -0.487609    0.034343
H       1.164196    1.521645   -0.171262
H       0.691706   -0.711365   -0.769065
H       0.781714   -1.474130    1.570201
H       0.765369    0.238142    2.075443
H      -1.656821   -1.498386    2.083577
H      -2.130008    0.882343    2.906425
H      -1.671787   -1.384034   -0.522118
