18

O       0.065420    1.410506    0.257810
C       0.058840    0.057265   -0.175903
C      -1.318295   -0.556543   -0.086498
C      -1.594735   -2.049892   -0.111851
C      -0.488115   -3.046808    0.196781
C      -0.040234   -2.727603    1.634955
O       0.888878   -3.210845    2.239359
N      -0.889122   -1.751877    2.107968
C      -1.839981   -1.260192    1.156712
H      -0.195290    1.418388    1.184372
H       0.383807    0.083729   -1.221463
H       0.798232   -0.539258    0.375864
H      -2.071810    0.033478   -0.603124
H      -2.434694   -2.387673   -0.706037
H      -0.856483   -4.076842    0.160170
H       0.379067   -2.994208   -0.467035
H      -0.698015   -1.307964    2.992306
H      -2.836909   -1.056424    1.531431
