18

O      -0.094090    1.455321   -0.124248
C       0.031684    0.044969   -0.091679
C      -1.370966   -0.527887    0.139304
C      -1.404434   -2.020236    0.148453
C      -1.635069   -2.873602    1.155451
C      -1.540779   -4.285330    0.642530
C      -1.226055   -4.105980   -0.852940
O      -1.074773   -4.950383   -1.704357
N      -1.148919   -2.736383   -1.040694
H       0.782351    1.835634   -0.233232
H       0.448367   -0.343023   -1.035104
H       0.697033   -0.288374    0.719173
H      -1.749356   -0.153455    1.094375
H      -2.031757   -0.134465   -0.644182
H      -1.853433   -2.590910    2.174260
H      -0.745015   -4.876733    1.111204
H      -2.464524   -4.865315    0.753071
H      -0.997516   -2.326814   -1.947815
