19

C      -0.254961    1.568648    0.136918
C       0.138970    0.118548   -0.171986
C       0.803081   -0.541570    1.037582
C       0.799870   -1.933926    1.553125
C       0.968690   -3.098975    0.562262
C       1.058663   -2.668347   -0.874727
C       2.202792   -2.386365    0.065869
N       2.091113   -1.280980    1.099950
H       0.621948    2.164253    0.411549
H      -0.724826    2.041367   -0.730799
H      -0.965181    1.617075    0.969439
H      -0.754708   -0.437112   -0.475257
H       0.826306    0.109467   -1.023240
H       0.824917    0.151891    1.880718
H       0.641254   -2.136233    2.609484
H       0.847450   -4.130326    0.864848
H       1.285229   -3.492003   -1.547398
H       0.418586   -1.920792   -1.315325
H       3.203543   -2.755848   -0.116796
