15

O      -0.156023    0.203413    0.563373
C       0.084627    1.117584   -0.178939
C       1.386753    1.892829   -0.147918
O       1.309311    2.888129   -1.156680
C       2.387804    3.685228   -1.285285
N       3.465782    3.561770   -0.522626
N       4.289152    4.538616   -0.977684
C       3.751302    5.253946   -1.991299
C       2.499818    4.730523   -2.230860
H      -0.633586    1.468978   -0.952266
H       1.533755    2.340147    0.843877
H       2.231963    1.213873   -0.321173
H       5.190193    4.650072   -0.547818
H       4.286432    6.065756   -2.458405
H       1.775788    5.041481   -2.964005
