15

O       0.746904    0.079899   -1.002586
C       0.300317    1.135975   -0.643298
C       1.154330    2.251772   -0.047959
N       0.493687    3.529703   -0.185942
C       1.132102    4.470099   -0.715762
O       0.546634    5.688370   -0.848436
C       1.316011    6.681553   -1.504727
C       1.381305    6.480153   -2.960688
N       1.442490    6.315395   -4.102031
H      -0.782903    1.377827   -0.699482
H       1.250940    2.018181    1.023532
H       2.162626    2.196873   -0.485974
H       2.164027    4.414226   -1.091936
H       0.824507    7.633978   -1.293573
H       2.337212    6.730828   -1.105123
