14

C      -0.109226    1.524690    0.025217
N       0.089261    0.084127   -0.104705
C       0.676387   -0.543287   -1.252093
C       1.787726    0.304758   -1.896176
C       2.505259    0.249147   -0.518177
O       3.600891    0.563545   -0.153256
C       1.382391   -0.557780    0.107812
H       0.685917    2.153772   -0.395349
H      -1.052156    1.785840   -0.464485
H      -0.201730    1.760192    1.088850
H       0.157997   -1.371628   -1.721359
H       2.382604   -0.239116   -2.636178
H       1.510708    1.277868   -2.308195
H       1.469085   -1.324794    0.869764
