17

O      -0.541930    0.461068    1.288905
C      -0.203195    0.111984   -0.032638
C      -1.353719   -0.581508   -0.782498
O      -1.111004   -0.654173   -2.179266
C      -1.604520   -1.983283   -0.241221
O      -1.732566   -2.138802    1.177895
C      -2.886553   -2.422518    0.354190
C      -4.019158   -1.548114    0.475327
C      -4.986588   -0.841316    0.568855
H      -0.919260   -0.324794    1.704712
H       0.035805    1.038479   -0.564995
H       0.696356   -0.532359   -0.073706
H      -2.253753    0.027782   -0.660422
H      -0.229040   -1.020750   -2.312539
H      -0.993208   -2.756441   -0.712671
H      -3.124216   -3.484268    0.309487
H      -5.836693   -0.209865    0.655334
