20

C       0.269493    1.373253    0.226654
N       0.455254   -0.048919    0.015680
C       0.310562   -0.638435   -1.206140
O       0.033616   -0.015097   -2.217097
C       0.497005   -2.154137   -1.214090
C       1.182811   -2.634206   -2.499270
C       1.205608   -4.137406   -2.600023
C       2.350139   -4.875821   -3.144772
O       2.120696   -4.823383   -1.735160
H       1.184938    1.844644    0.601460
H       0.012589    1.811679   -0.738256
H      -0.541321    1.569926    0.937168
H       0.697441   -0.627763    0.802134
H       1.055970   -2.496238   -0.336510
H      -0.504321   -2.600734   -1.143964
H       0.652779   -2.207324   -3.356863
H       2.210073   -2.255003   -2.534509
H       0.225164   -4.615968   -2.659272
H       2.199625   -5.849951   -3.608376
H       3.222035   -4.325836   -3.497243
