20

C      -0.159321    1.505640    0.111173
C       0.031866   -0.020691    0.022463
C       0.785254   -0.447287   -1.252633
C       2.252646    0.007369   -1.241752
C       2.914391   -0.265697    0.079205
C       2.236744   -0.534609    1.204234
C       0.776230   -0.539288    1.239493
N       0.049938   -0.913121    2.231642
O       0.813473   -1.347259    3.327266
H       0.797463    2.031160    0.191876
H      -0.679152    1.881486   -0.776800
H      -0.753822    1.762576    0.991959
H      -0.959449   -0.484145    0.022180
H       0.757516   -1.540872   -1.327221
H       0.272175   -0.054135   -2.137073
H       2.808937   -0.491667   -2.044758
H       2.327937    1.081921   -1.466787
H       4.001410   -0.240597    0.105250
H       2.755564   -0.751170    2.129488
H       0.131196   -1.571350    3.967978
