13

O      -0.257710    1.444382   -0.021504
C      -0.127370    0.067226    0.027336
C      -0.485175   -0.694432    1.270026
O      -1.263058    0.033974    2.205501
C      -2.426177    0.324983    1.553637
N      -2.606594   -0.133849    0.379020
C      -1.384851   -0.790689    0.020348
C      -3.365030    1.116200    2.288651
N      -4.116507    1.754147    2.890979
H       0.270123    1.828725    0.687515
H       0.692978   -0.359184   -0.549270
H       0.125110   -1.461628    1.728427
H      -1.458466   -1.638369   -0.648357
