20

C      -0.082221    1.579760    0.012411
C      -0.028388    0.044563   -0.047759
C      -1.466932   -0.522568   -0.024772
O      -2.135369   -0.192670    1.169979
C       0.729749   -0.465494   -1.285301
C       2.231232   -0.314887   -1.075999
O       2.653114   -0.944600    0.145078
C       1.774193   -0.897813    1.168648
N       0.588885   -0.457133    1.192410
H       0.917588    2.017929    0.079347
H      -0.576447    1.976927   -0.880844
H      -0.653499    1.892690    0.888195
H      -2.050107   -0.104611   -0.853430
H      -1.413132   -1.614991   -0.166591
H      -1.499195   -0.399961    1.870070
H       0.499233   -1.525615   -1.445661
H       0.429839    0.075789   -2.188786
H       2.807787   -0.794743   -1.870049
H       2.522754    0.741290   -1.032422
H       2.227621   -1.324904    2.061831
