16

C       0.055647   -1.178237    0.020678
C       0.041730    0.023476    0.028328
C       0.038481    1.462272    0.047272
C      -1.053459    2.078176   -0.674156
N      -1.921215    2.584377   -1.246780
C       0.493041    2.274884    1.272723
C       1.587400    1.513368    2.026570
C       2.458378    1.532448    0.724340
C       1.333495    2.293318    0.016167
H       0.055748   -2.240317    0.004761
H      -0.175586    3.026817    1.672601
H       2.024929    2.112822    2.826663
H       1.305918    0.534944    2.421676
H       3.356732    2.141989    0.835441
H       2.729216    0.566123    0.293626
H       1.437467    3.062184   -0.739083
