16

O       0.016051    0.018993    0.268048
C      -0.019813    1.189462    0.002205
O      -1.206694    1.785618   -0.264213
C      -1.222778    3.130419   -0.773895
C      -0.109295    3.975700   -0.208140
C       0.163985    3.872580    1.319225
C       1.451546    3.160146    0.928779
C       1.216700    2.037704   -0.022438
N       1.261087    3.422368   -0.545035
H      -1.153146    3.094403   -1.868441
H      -2.202407    3.533679   -0.502626
H      -0.191899    4.998273   -0.581028
H       0.347938    4.849217    1.768953
H      -0.550289    3.321480    1.936145
H       2.417940    3.277894    1.407508
H       2.094495    1.458297   -0.286078
