20

O       0.029823    1.495143    0.044486
C       0.051894    0.090652   -0.010714
C       0.243608   -0.621511    1.354610
N      -1.229301   -0.759837    1.436963
C      -1.341541   -0.591968   -0.030892
C      -1.783604   -1.939434    2.045986
C      -1.757496   -1.959367    3.590329
O      -3.196923   -1.993680    3.661794
C      -3.317668   -1.930291    2.226651
H      -0.580256    1.746432    0.747833
H       0.744618   -0.176454   -0.808952
H       0.767890   -1.586109    1.250934
H       0.708758   -0.041096    2.158281
H      -2.187702    0.012887   -0.373376
H      -1.329234   -1.547024   -0.582060
H      -1.398242   -2.866672    1.585327
H      -1.302615   -2.841445    4.056323
H      -1.341198   -1.049704    4.040164
H      -3.799762   -1.003885    1.891240
H      -3.858779   -2.793807    1.822092
