16

O       0.663589    1.037104    0.611402
C       0.126698   -0.189317    0.244560
C      -0.942136   -0.852293    1.047410
O      -1.742350    0.166518    1.653161
C      -2.211388    0.621339    0.345999
C      -1.260471   -0.341660   -0.361218
N      -1.497569   -1.014549   -1.580625
C      -2.545563   -1.872745   -1.773752
O      -3.362915   -2.165182   -0.931017
H       0.166613    1.319834    1.392195
H       0.864372   -0.857491   -0.193280
H      -0.928312   -1.835351    1.501969
H      -3.262114    0.355523    0.213569
H      -2.049879    1.694153    0.195464
H      -0.901620   -0.809510   -2.368653
H      -2.557358   -2.278339   -2.804946
