20

C       0.346215    1.565046   -0.088260
C      -0.051842    0.090754    0.050752
C       0.395282   -0.760194   -1.163798
C       1.530869   -1.672811   -0.681854
O       2.278265   -2.295726   -1.395280
C       1.612211   -1.604663    0.817552
C       0.642530   -0.540005    1.266290
N       0.411650   -1.922776    1.596063
C      -0.704031   -2.711028    1.089601
H       1.429582    1.669548   -0.216913
H      -0.139556    2.021332   -0.956138
H       0.058087    2.138127    0.799137
H      -1.139321    0.038139    0.181595
H      -0.406587   -1.371080   -1.593007
H       0.778294   -0.141690   -1.981507
H       2.563830   -1.833005    1.288160
H       0.870186    0.108562    2.110238
H      -1.102502   -2.418988    0.109224
H      -0.391704   -3.757512    1.033136
H      -1.520514   -2.641995    1.815482
