16

N      -0.131250    1.263734    0.440698
C      -0.069514   -0.047946    0.073499
C      -1.082408   -0.925599   -0.272706
N      -0.448323   -2.090098   -0.611571
N       0.788838   -2.038141   -0.510875
O       1.103683   -0.626913   -0.035776
C      -2.539308   -0.702037   -0.317487
C      -3.473612   -1.727859    0.271762
C      -3.300478   -0.407286    0.968606
H       0.666187    1.621119    0.944040
H      -1.025659    1.571801    0.790872
H      -2.911404   -0.185483   -1.199883
H      -4.404960   -1.916721   -0.249046
H      -3.023362   -2.604177    0.722373
H      -2.738804   -0.400438    1.896637
H      -4.112110    0.310495    0.925278
