16

C      -0.508180    1.036615    0.146685
N       0.589785    0.101878   -0.073651
C       1.041884   -0.590732    1.086683
C       0.187480   -1.531724    1.918814
O      -0.985723   -2.033524    1.287144
C      -0.545962   -2.737826    0.215589
N       0.707541   -2.852248    0.023097
C       1.337605   -2.078037    1.070736
H      -0.171771    1.852220    0.797089
H      -0.798489    1.479519   -0.810381
H      -1.398466    0.581978    0.607933
H       0.389193   -0.543977   -0.826466
H       1.744827   -0.028075    1.700524
H       0.105525   -1.496170    2.997579
H      -1.328143   -3.166563   -0.399140
H       2.282633   -2.452663    1.444432
