12

F       0.063101    0.034962    0.223550
C       0.009383    1.354962    0.057743
C      -1.149769    2.006158   -0.041954
O      -1.224824    3.355448   -0.211756
C      -0.081735    4.128189   -0.290276
O      -0.172026    5.310950   -0.439390
N       1.099336    3.434936   -0.184924
C       1.282733    2.060632   -0.010294
N       2.459197    1.583522    0.067948
H      -2.121905    1.533827    0.001708
H       1.939140    3.995349   -0.241634
H       2.418704    0.573096    0.193572
