23

C      -0.083776    1.535626    0.088850
C       0.002118    0.000747    0.047679
C       0.748303   -0.505564    1.284924
O      -1.313939   -0.554711    0.140591
C       0.695488   -0.488725   -1.256743
C       0.763767   -2.039366   -1.380326
C       0.462728   -2.376061   -2.862914
C      -0.165649   -1.107843   -3.381934
C      -0.027054   -0.091732   -2.531089
H       0.907895    1.995026    0.016568
H      -0.696844    1.925058   -0.729416
H      -0.544641    1.854465    1.028058
H       0.222202   -0.190569    2.190646
H       0.806985   -1.596282    1.291367
H       1.764729   -0.101342    1.316440
H      -1.751330   -0.397993   -0.704948
H       1.705251   -0.051023   -1.262100
H       1.720972   -2.444975   -1.045449
H      -0.019502   -2.465204   -0.747456
H       1.377969   -2.602894   -3.427987
H      -0.186294   -3.252431   -2.973560
H      -0.622390   -1.039075   -4.363928
H      -0.344142    0.925320   -2.734507
