16

C      -0.195731    1.330223    1.160830
C       0.030350   -0.072702    0.653972
C       0.223687   -0.345734   -0.800739
N       1.339695   -0.488345    0.127201
C       2.406355    0.383053    0.060202
N       3.085051    0.798867    1.130813
N       4.039919    1.518424    0.545708
N       3.986362    1.558231   -0.771807
N       2.943133    0.840335   -1.106294
H       0.216139    2.077801    0.477150
H      -1.269127    1.518389    1.263927
H       0.271560    1.473151    2.140214
H      -0.432271   -0.853902    1.253427
H      -0.126975   -1.273289   -1.243336
H       0.244235    0.507365   -1.473908
H       4.759220    1.993931    1.069168
