18

C       0.082244    1.516784   -0.103091
C       0.049597    0.064365   -0.010878
C       0.027445   -1.137014    0.061720
C       0.005364   -2.589961    0.148569
C      -1.432391   -3.187495    0.053753
C      -2.335078   -2.699751    1.189856
O      -2.074355   -2.815434   -1.152348
C      -1.303378   -4.666910    0.112269
N      -1.181321   -5.816047    0.130697
H       0.982899    1.859805   -0.623872
H      -0.784478    1.897162   -0.654440
H       0.075397    1.980471    0.889282
H       0.610748   -3.028833   -0.655847
H       0.460188   -2.931189    1.086681
H      -2.390572   -1.610318    1.147694
H      -3.336926   -3.116248    1.069892
H      -1.935552   -3.004709    2.159842
H      -1.514280   -3.069909   -1.894759
