18

N       0.023498    1.394160   -0.178957
C      -0.030698    0.002081   -0.060719
C      -1.120624   -0.835873   -0.114249
N      -0.600070   -2.120716   -0.004024
C      -1.345002   -3.360499   -0.061966
C      -1.790432   -3.711938   -1.483079
O      -2.500618   -4.933198   -1.391003
C       0.745394   -1.983574    0.096212
N       1.126898   -0.722569    0.072092
H       0.903785    1.743309    0.178193
H      -0.748309    1.868072    0.270714
H      -2.178378   -0.657629   -0.208266
H      -0.712487   -4.164209    0.324597
H      -2.224708   -3.294714    0.586310
H      -2.416969   -2.900983   -1.883880
H      -0.903342   -3.795703   -2.129133
H      -2.795674   -5.180948   -2.271642
H       1.398763   -2.838170    0.195563
