16

N       0.519611    0.282918   -0.996016
C      -0.055398    0.204725    0.233816
O       0.428265    0.669497    1.251062
C      -1.348629   -0.547515    0.258663
C      -2.310431   -0.593052    1.451214
C      -2.622873   -2.089693    1.115679
C      -1.640630   -2.002216   -0.059743
N      -1.996991   -0.943851   -0.990632
H       1.369749    0.810460   -1.098717
H      -0.005119   -0.009018   -1.804135
H      -1.780243   -0.473813    2.396083
H      -3.141499    0.118425    1.415006
H      -2.292619   -2.770942    1.902308
H      -3.653474   -2.341154    0.844216
H      -0.963498   -2.774177   -0.407252
H      -2.993830   -0.733895   -0.999781
