19

C       0.270383    1.624053   -0.354518
C       0.086972    0.140852   -0.063962
C       0.616751   -0.858345   -1.129374
O       1.765907   -0.379672   -1.847362
C       2.672908   -1.102899   -0.972442
C       1.511763   -1.574615   -0.078220
C       1.021158   -0.574089    0.999904
C       2.006681    0.253698    1.776972
O       3.195066    0.055412    1.840674
H       1.302964    1.846065   -0.635660
H      -0.368942    1.927361   -1.190337
H       0.000007    2.239143    0.509523
H      -0.963239   -0.068389    0.162843
H      -0.113587   -1.342634   -1.784085
H       3.166102   -1.919584   -1.514098
H       3.428113   -0.458418   -0.519103
H       1.458991   -2.634689    0.162769
H       0.399363   -1.067984    1.758080
H       1.542501    1.096884    2.339660
