15

C       0.014988    1.356811    0.063433
N      -0.040638   -0.095014    0.090284
C      -1.151832   -0.684779    0.007316
O      -2.388998   -0.129426   -0.111423
C      -3.347703   -1.192754   -0.170675
O      -4.508900   -0.936226   -0.276261
C      -2.620533   -2.445998   -0.080622
C      -1.297432   -2.163487    0.027068
N      -0.192214   -2.913826    0.138355
H       0.651520    1.669825   -0.771525
H      -0.963884    1.837098   -0.031394
H       0.500530    1.708023    0.980605
H      -3.115663   -3.403458   -0.102297
H      -0.220723   -3.916625    0.159340
H       0.690649   -2.432419    0.204951
