19

O      -0.137689    1.520140    0.099332
C       0.001715    0.110209    0.179101
C      -1.361756   -0.504940   -0.128722
C      -1.352670   -1.998187   -0.098425
C      -2.454752   -3.054311    0.012295
C      -1.950739   -3.791556   -1.226798
C      -0.585468   -3.138622   -0.896043
O      -0.188208   -3.774555    0.350872
C      -1.244299   -3.039168    0.966173
H       0.715917    1.918693    0.291428
H       0.747127   -0.260206   -0.542838
H       0.331663   -0.207771    1.180254
H      -2.088728   -0.130359    0.602429
H      -1.695744   -0.139951   -1.108449
H      -3.471175   -2.918233    0.360649
H      -1.971930   -4.885784   -1.247581
H      -2.385787   -3.379660   -2.141095
H       0.226912   -3.047843   -1.614760
H      -1.301275   -2.997794    2.046281
