16

C       0.047782    1.475365   -0.020052
C       1.315358    0.688954    0.034155
N      -0.022090    0.012665   -0.031724
C      -0.188604   -0.596423   -1.383712
C       1.084008   -0.254896   -2.111653
N       1.581963   -0.482175   -3.315917
N       2.809869    0.088562   -3.245282
C       3.086977    0.661605   -2.036120
C       1.963438    0.456310   -1.272104
H      -0.347969    1.938765    0.880429
H      -0.155437    2.017779   -0.941923
H       1.862809    0.586973    0.966090
H      -0.321289   -1.677543   -1.265092
H      -1.091491   -0.204812   -1.864020
H       3.416196    0.031811   -4.045884
H       4.031034    1.148708   -1.851187
