21

C       0.174169    1.336184   -0.229829
O       0.301167   -0.062920   -0.171567
C       0.422976   -0.543351    1.152971
C       0.503584   -2.044405    1.110822
C       1.813656   -2.726261    0.849129
C       1.189740   -2.813510    2.234654
C       1.787182   -2.143233    3.355407
C       2.282286   -1.601461    4.311865
C       2.885648   -0.949896    5.465791
H       1.052471    1.846808    0.197540
H       0.083397    1.614389   -1.282827
H      -0.719493    1.690775    0.309277
H       1.319919   -0.127177    1.638531
H      -0.444999   -0.222728    1.755091
H      -0.381775   -2.521757    0.701427
H       1.825106   -3.625678    0.244143
H       2.692276   -2.099276    0.748250
H       0.727919   -3.766426    2.478315
H       2.992877   -1.649049    6.302782
H       3.883956   -0.563522    5.231010
H       2.278726   -0.107437    5.816600
