17

C      -0.119308   -1.228443   -0.030442
C      -0.069170   -0.028475   -0.001318
C       0.005048    1.425210    0.012068
C       1.461472    1.970075    0.049040
C       1.445086    3.516398   -0.118363
C       2.772217    4.097705   -0.258701
C       3.870665    4.565767   -0.391434
C       2.145047    1.575882    1.276092
C       2.681585    1.270688    2.306711
H      -0.166080   -2.289037   -0.045598
H      -0.489221    1.823925   -0.882958
H      -0.542332    1.819980    0.876713
H       1.999018    1.546495   -0.807330
H       0.844427    3.760629   -1.003748
H       0.931342    3.960011    0.743238
H       4.841160    4.982776   -0.498760
H       3.169481    0.990963    3.207389
