19

C       0.017068    1.407068    0.017756
O       0.020027   -0.002223    0.014123
C       0.585800   -0.552075   -1.150241
C       0.556200   -2.075094   -1.019317
C       1.186220   -2.724642   -2.279216
C       1.076784   -4.177088   -2.297445
C       0.978644   -5.374241   -2.295689
C       1.332544   -2.490695    0.221072
O       0.910615   -3.184808    1.104168
H       1.037306    1.817058   -0.043258
H      -0.568374    1.814115   -0.821375
H      -0.438724    1.728319    0.956708
H       0.028092   -0.237840   -2.048752
H       1.626818   -0.202118   -1.279158
H      -0.474797   -2.417376   -0.899204
H       0.700567   -2.306127   -3.169745
H       2.243811   -2.433939   -2.346586
H       0.894458   -6.432776   -2.292735
H       2.378266   -2.095984    0.241545
