18

C      -0.018787    1.479150    0.328125
C      -0.030814    0.055477   -0.239555
C      -1.386965   -0.604307   -0.118674
C      -1.549494   -2.110584   -0.124888
C      -0.420055   -2.986346   -0.216723
C       0.517975   -3.732654   -0.306872
C      -1.819713   -1.303666    1.160182
C      -0.922468   -1.403189    2.275293
N      -0.211209   -1.468391    3.185475
H       0.964206    1.939952    0.195872
H      -0.756212    2.115400   -0.173647
H      -0.246462    1.477783    1.398461
H       0.249471    0.070977   -1.299876
H       0.721429   -0.556460    0.266976
H      -2.195335   -0.067158   -0.608501
H      -2.453043   -2.488191   -0.594954
H       1.348542   -4.391193   -0.373058
H      -2.862389   -1.217527    1.446838
