13

O      -0.148217    1.455683    0.126416
C      -0.031785    0.062806    0.041908
C       0.881887   -0.512775    1.019744
C       1.660381   -0.975074    1.811254
C      -1.389260   -0.666428   -0.013030
O      -2.045145   -0.232777   -1.188717
C      -1.101995   -1.321310   -1.314265
C       0.242756   -0.613517   -1.391136
O       1.171078   -0.609710   -2.135219
H       0.740848    1.827570    0.146023
H       2.345755   -1.383455    2.513137
H      -1.980284   -1.033274    0.816472
H      -1.454521   -2.255240   -1.733192
