12

C       0.027004    1.461801    0.013803
C       0.021065    0.013609   -0.002476
C       0.016161   -1.198188   -0.015033
C       0.009363   -2.549676   -0.029255
C       0.008138   -3.764963   -0.041795
C      -0.007443   -5.193497   -0.057240
O      -1.003071   -5.881244   -0.114409
C       1.332529   -5.808330    0.003898
N       2.379057   -6.297907    0.051555
H       1.040355    1.854545   -0.121412
H      -0.605161    1.862969   -0.785897
H      -0.359031    1.838593    0.967486
