18

C       0.338550    1.365723    0.104041
C      -0.391434    0.053119   -0.191774
N       0.116481   -0.631251   -1.370246
C       0.933971   -1.723909   -1.297766
O       1.235672   -2.254153   -0.242286
C       1.458782   -2.222850   -2.644433
C       1.721895   -3.729158   -2.635981
H       1.401944    1.182604    0.282821
H       0.248689    2.070306   -0.730257
H      -0.082345    1.845463    0.993548
H      -0.268959   -0.646389    0.637703
H      -1.464851    0.236503   -0.321316
H      -0.053436   -0.219172   -2.273309
H       0.767924   -1.946929   -3.449980
H       2.394397   -1.682563   -2.842201
H       2.355325   -3.990932   -1.786284
H       0.788378   -4.291506   -2.538210
H       2.214874   -4.044091   -3.559925
