19

C      -0.084175    1.511778    0.024145
C      -0.017377    0.015453    0.019160
C       0.007925   -0.798994   -1.097593
N      -0.017208   -0.547519   -2.491988
N       0.070479   -2.102106   -0.664613
C       0.085882   -2.142353    0.704518
C       0.032289   -0.845867    1.160789
C       0.027599   -0.418800    2.594163
O       0.076840   -1.574343    3.419619
H       0.782504    1.964045    0.523334
H      -0.112966    1.904683   -0.997326
H      -0.976647    1.885281    0.542653
H       0.771462    0.017576   -2.789324
H      -0.859951   -0.057293   -2.773464
H       0.098962   -2.887432   -1.291208
H       0.132258   -3.068849    1.250276
H       0.888048    0.243815    2.795858
H      -0.876276    0.178577    2.809231
H       0.079199   -1.283918    4.335601
