21

O      -0.521335    0.630938    0.824038
C       0.081970    0.950631   -0.169135
C       1.357694    1.766228   -0.165737
C       1.359308    2.869964   -1.226337
C       2.568344    3.806304   -1.113891
C       2.580412    4.808521   -2.277106
C       2.455166    4.069729   -3.617054
C       1.255757    3.121973   -3.582687
O       1.337313    2.216358   -2.491160
H      -0.270593    0.655876   -1.180516
H       1.509746    2.176689    0.836215
H       2.191926    1.087237   -0.391326
H       0.439974    3.476643   -1.123514
H       2.542686    4.327192   -0.150168
H       3.482019    3.198148   -1.132750
H       1.736187    5.502665   -2.165344
H       3.490812    5.416087   -2.250929
H       2.344593    4.775968   -4.447642
H       3.362731    3.483147   -3.805378
H       0.319058    3.702403   -3.518280
H       1.205393    2.504216   -4.483851
