11

O      -0.172180    0.100345   -0.002199
C       0.018884    1.287376    0.007111
C       1.368189    1.894764   -0.002518
N       2.540843    1.324997   -0.020650
C       3.432873    2.362323   -0.021331
C       2.743381    3.547120   -0.002919
O       1.414190    3.252422    0.009633
C       3.146405    4.898197    0.004781
N       3.502957    5.999781    0.010770
H      -0.797648    2.036571    0.023075
H       4.500851    2.213288   -0.034684
