15

O       0.249416    1.249234    0.310942
C       0.075105   -0.075163   -0.159342
C      -1.363559   -0.490727   -0.174084
C      -2.247319   -0.801965   -1.166447
C      -2.068303   -0.858982   -2.654270
O      -0.843258   -1.470112   -3.036741
N      -3.441316   -1.096334   -0.543668
N      -3.347422   -0.978876    0.702664
O      -1.995593   -0.590037    0.996708
H      -0.057969    1.283229    1.223341
H       0.451319   -0.109659   -1.183231
H       0.652035   -0.798419    0.436897
H      -2.942292   -1.361421   -3.089517
H      -2.029399    0.150038   -3.077834
H      -0.870606   -2.388978   -2.748645
