17

C      -0.523987    1.365737    0.004339
C       0.093601   -0.023240   -0.020686
C       1.444866   -0.253677   -0.769399
C       1.919558   -1.174621    0.394520
C       0.787361   -0.578153    1.231761
C       0.854336    0.000525    2.575240
O       0.138596   -1.217161    2.313378
H       0.202517    2.115516    0.336582
H      -0.874746    1.658755   -0.991062
H      -1.383902    1.404878    0.682112
H      -0.645146   -0.759224   -0.360394
H       1.389680   -0.699451   -1.763959
H       2.032845    0.666708   -0.828357
H       1.741645   -2.233599    0.184986
H       2.941851   -1.053218    0.759926
H       1.762743   -0.110512    3.166916
H       0.233771    0.857016    2.835695
