12

O       0.037409   -0.007481   -0.058921
C      -0.005367    1.197471   -0.003672
C      -1.217813    2.064598    0.081691
C      -0.873447    3.357500    0.012640
C       0.614999    3.517854   -0.061849
N       1.272090    2.998370    1.169892
C       1.180016    2.152356   -0.056795
H      -2.212797    1.656321    0.200523
H      -1.553079    4.200323    0.057969
H       1.068352    4.342398   -0.599222
H       2.223204    3.366625    1.215070
H       2.083403    1.862865   -0.579207
