21

C       1.492544   -2.282876    2.925065
N       0.658741   -1.948053    1.785329
C      -0.453697   -2.717327    1.497776
O      -0.883897   -3.576711    2.246555
N      -1.032999   -2.413577    0.272517
C      -2.324187   -2.958720   -0.071870
C      -3.497319   -2.438548    0.736334
C      -2.507412   -3.270553   -1.538530
C      -2.326976   -4.388261   -0.539747
H       2.295178   -2.989481    2.673711
H       1.941044   -1.375907    3.341135
H       0.854898   -2.748349    3.676800
H       1.116131   -1.498730    1.007637
H      -0.847447   -1.488540   -0.089366
H      -3.598426   -1.351698    0.629547
H      -4.434734   -2.895610    0.405081
H      -3.353424   -2.673108    1.794324
H      -3.490157   -3.109336   -1.968011
H      -1.680709   -3.055118   -2.206351
H      -1.380567   -4.913755   -0.532049
H      -3.185357   -4.997758   -0.281427
