14

C      -0.200483    1.429357   -0.146952
N       0.207221    0.043086    0.087233
C       0.819118   -0.568606   -1.073702
C       1.055150   -2.087407   -0.991943
O       0.106592   -2.308295   -2.086572
C      -0.184069   -0.972098   -2.171160
O      -0.972090   -0.439629   -2.884060
H       0.628117    2.091561   -0.452749
H      -0.956058    1.452069   -0.936031
H      -0.645411    1.830740    0.767169
H       0.862362    0.007953    0.862036
H       1.674261   -0.011187   -1.495048
H       2.048600   -2.449347   -1.262065
H       0.695711   -2.552145   -0.072094
