17

O       0.156044    0.467119    0.905695
C      -0.192702    0.166850   -0.438622
C      -1.523750   -0.538608   -0.428761
C      -1.801952   -1.637501   -1.415913
C      -1.566748   -1.972373    0.030460
C      -0.516776   -2.814820    0.741323
O      -1.567320   -3.322222    1.633168
C      -2.538079   -2.573522    1.002093
O      -3.700753   -2.519817    1.247742
H       0.935066    1.031676    0.898401
H      -0.265087    1.080919   -1.047233
H       0.564204   -0.480760   -0.911230
H      -2.366687    0.070777   -0.116342
H      -2.813193   -1.753588   -1.789765
H      -1.020246   -1.904142   -2.120547
H      -0.069596   -3.633111    0.172141
H       0.235373   -2.258750    1.303268
