18

O       0.272142    1.150870   -0.008432
C       0.229671   -0.131899   -0.625150
C      -1.136115   -0.766912   -0.458716
C      -1.470377   -2.214000   -0.269539
C      -0.470912   -3.234397    0.216219
O       0.858417   -2.769752    0.486221
C      -0.064254   -2.854400    1.579548
C      -0.775118   -1.550091    1.924757
N      -1.707443   -1.228196    0.815216
H      -0.446092    1.681615   -0.369210
H       0.448634   -0.066007   -1.702973
H       1.017022   -0.718985   -0.163329
H      -1.892150   -0.207418   -1.018278
H      -2.352018   -2.624701   -0.757579
H      -0.544868   -4.261188   -0.130062
H       0.203987   -3.566115    2.357182
H      -1.374110   -1.694168    2.830692
H      -0.080887   -0.724329    2.107516
