19

O       0.165287    1.486252    0.055364
C       0.124972    0.100109    0.060255
C      -0.092934   -0.640857    1.423917
N      -1.496095   -0.055073    1.378891
C      -1.258377   -0.616297   -0.017089
C      -0.615680   -1.879050    0.618777
N       0.204655   -2.768017   -0.177091
C       1.658740   -2.761234   -0.022478
C       0.845346   -3.883570    0.512713
H      -0.557988    1.758402    0.639991
H       0.909518   -0.270871   -0.595659
H       0.508490   -0.593975    2.334060
H      -2.147244   -0.653971    1.895193
H      -2.018303   -0.557037   -0.797534
H      -1.345958   -2.472584    1.179916
H       2.228988   -2.875921   -0.940251
H       2.098373   -2.080933    0.703537
H       0.740093   -3.943915    1.595157
H       0.809031   -4.839646   -0.002247
