20

C      -0.076450    1.409238   -0.159030
O       0.013803    0.007985   -0.087688
C      -1.242151   -0.615165    0.040506
C      -1.091701   -2.099602    0.100376
C       0.041060   -2.799932    0.044112
C      -0.195355   -4.284250    0.184996
C      -1.731536   -4.413432    0.014188
C      -2.296892   -2.997415    0.292911
H       0.939880    1.798298   -0.257527
H      -0.668734    1.738494   -1.028118
H      -0.534430    1.837633    0.747187
H      -1.762818   -0.253577    0.948630
H      -1.898554   -0.338331   -0.807242
H       1.025130   -2.358541   -0.050950
H       0.357344   -4.878207   -0.552163
H       0.137923   -4.638772    1.171409
H      -1.958587   -4.696215   -1.018518
H      -2.169845   -5.177895    0.660782
H      -2.684999   -2.904529    1.318118
H      -3.131937   -2.741525   -0.371099
