17

C      -0.102294    1.522835   -0.049119
C       0.054361    0.022918    0.072293
C       1.369003   -0.732804   -0.186168
C       2.631944    0.053486   -0.090161
O       3.494732    0.201108   -0.905369
O       2.714512    0.631063    1.156171
C       1.699729    0.139657    2.039152
C       0.731264   -0.680340    1.192791
O       0.062963   -1.732308    1.800099
H       0.771116    2.065280    0.321257
H      -0.249297    1.807911   -1.095311
H      -0.976771    1.861650    0.516378
H      -0.789902   -0.549288   -0.304242
H       1.356408   -1.596253   -0.837365
H       2.167983   -0.493929    2.803222
H       1.228608    0.992415    2.537283
H       0.711402   -2.389891    2.078917
