14

C      -0.025118    1.504495   -0.019080
C       0.005787    0.020322   -0.013559
N       0.004484   -0.740935   -1.074823
N       0.038264   -2.036901   -0.627332
C       0.061302   -2.080584    0.732357
N       0.094288   -2.922111    1.737382
N       0.095403   -2.111862    2.864965
C       0.063867   -0.850678    2.510415
N       0.040583   -0.765167    1.131098
H       0.857737    1.920290    0.478740
H      -0.046562    1.856932   -1.050874
H      -0.910567    1.883628    0.502860
H       0.044231   -2.796535   -1.282707
H       0.056984   -0.001700    3.172422
