19

C      -0.278793    1.487986    0.002859
C       0.019573    0.018018   -0.027142
C       0.235523   -0.734077   -1.182132
N       0.303196   -0.403557   -2.554838
N       0.407108   -2.023406   -0.750150
C       0.858108   -3.407761   -0.949243
C       0.741472   -3.571075    0.617138
C       0.341519   -2.103399    0.607235
C       0.111985   -0.848446    1.117855
H      -0.394655    1.886246   -1.010775
H      -1.207095    1.704563    0.544639
H       0.516741    2.064528    0.491572
H       0.729392    0.505411   -2.690325
H      -0.612208   -0.377789   -2.995838
H       0.179509   -4.019233   -1.550850
H       1.873540   -3.487266   -1.347643
H      -0.019688   -4.284542    0.945692
H       1.685812   -3.809459    1.114155
H       0.007048   -0.551814    2.150413
