16

O      -0.166641   -0.025436    0.111974
C      -0.078421    1.166684    0.027642
C      -1.225594    2.187883   -0.207120
N      -0.754044    3.474047    0.329024
C       0.495550    3.345310    0.506007
O       1.321076    4.189896    1.148043
C       2.554665    3.476830    1.430930
C       2.248461    1.970094    1.243314
C       1.170998    2.049787    0.157920
H      -1.450914    2.246275   -1.281621
H      -2.144179    1.865281    0.293466
H       3.323560    3.823607    0.730888
H       2.855770    3.741766    2.446079
H       3.135434    1.402012    0.960108
H       1.842000    1.540222    2.163404
H       1.627261    2.108350   -0.841103
