15

O       0.162381    1.376857    0.303538
C      -0.017083    0.008328    0.031948
C      -1.458137   -0.432293   -0.100057
C      -2.182571   -0.195956   -1.402764
O      -1.275054    0.151365   -2.452081
C      -0.479453   -1.045721   -2.139379
C      -1.552067   -1.536509   -1.149966
C       0.629461   -0.408108   -1.307998
O       1.757786   -0.142209   -1.630090
H       1.043054    1.608930   -0.019466
H       0.451947   -0.614636    0.816122
H      -2.073546   -0.526902    0.787023
H      -3.208123    0.141095   -1.489480
H      -0.202612   -1.613923   -3.025510
H      -1.949560   -2.532271   -1.019136
