21

C      -0.102596    1.559057   -0.009123
C       0.055580    0.039732   -0.013933
C       0.883438   -0.525519   -1.181805
C       1.189300   -1.955182   -0.725678
C       1.562923   -1.794307    0.785730
N       2.995933   -1.578865    1.048469
C       0.766233   -0.520368    1.240569
C       1.156095   -2.990292    1.539783
N       0.819938   -3.941647    2.103403
H       0.874057    2.055097    0.037179
H      -0.612170    1.907267   -0.913561
H      -0.687769    1.896898    0.852442
H      -0.943228   -0.413322   -0.072582
H       0.357857   -0.486284   -2.139916
H       1.811374    0.051580   -1.299573
H       0.289764   -2.572608   -0.824130
H       1.992041   -2.451097   -1.278154
H       3.534013   -2.370118    0.704318
H       3.307531   -0.763337    0.528068
H       1.491469    0.196918    1.638057
H       0.069179   -0.744404    2.049988
