22

C       0.041615    1.507284   -0.239307
C       0.013614    0.002131    0.008403
O       0.814273   -0.350795    1.136087
C      -1.423160   -0.573865    0.115795
C      -1.407916   -2.106476    0.140907
N      -2.185068   -0.012866    1.235765
C      -2.030987   -0.542392    2.588576
C      -3.163388    0.914328    1.019446
O      -3.879610    1.396255    1.872844
H       1.074885    1.853103   -0.330745
H      -0.490234    1.770185   -1.159033
H      -0.434592    2.048252    0.586704
H       0.483636   -0.504967   -0.844710
H       0.728087    0.352273    1.787934
H      -1.947024   -0.253441   -0.793645
H      -2.421434   -2.506155    0.233873
H      -0.975132   -2.487720   -0.788710
H      -0.801182   -2.482923    0.967648
H      -2.399326    0.210285    3.286092
H      -2.618442   -1.457284    2.733260
H      -0.983736   -0.768232    2.787084
H      -3.234777    1.196820   -0.049729
