19

C      -0.092832    1.454003   -0.145966
C       1.292076    0.946918    0.123626
C       0.130311   -0.032542    0.078348
C      -0.358586   -0.718662    1.286922
C      -0.763710   -1.997294    1.351357
C      -1.096570   -2.381178    2.750268
O       0.028973   -2.271314    3.662532
C      -0.889124   -1.182285    3.577779
C      -0.444284   -0.052205    2.657152
H      -0.589826    2.015398    0.637112
H      -0.345060    1.774682   -1.150429
H       2.002874    0.910746   -0.694225
H       1.736690    1.162140    1.088420
H       0.086256   -0.647198   -0.815738
H      -0.801422   -2.684395    0.514708
H      -1.800478   -3.171898    2.990577
H      -1.449717   -0.968085    4.483961
H       0.514314    0.370508    2.979855
H      -1.174833    0.766993    2.663310
