19

C       0.101456    1.560924   -0.225256
C       0.131621    0.085970    0.078764
O       1.408087   -0.579787    0.127932
C       0.619367   -0.544572    1.316461
C       1.222128    0.132373    2.532373
C       2.349213   -0.746154    3.161532
O       3.428577    0.153430    3.350496
C       3.267717    1.116334    2.342593
O       1.877150    1.365765    2.257298
H       0.839368    2.103338    0.361918
H       0.292992    1.722662   -1.291520
H      -0.894180    1.962220   -0.004759
H      -0.614298   -0.494700   -0.470376
H       0.168356   -1.507131    1.582931
H       0.422153    0.333313    3.255545
H       2.077740   -1.169104    4.130950
H       2.629675   -1.559293    2.477059
H       3.778931    2.036204    2.638120
H       3.645383    0.746719    1.375248
