20

C      -0.320261    1.434819   -0.845172
C      -0.084596    0.118328   -0.138376
C       1.272448   -0.513684   -0.160405
C       0.733497    0.073845    1.131094
O      -1.129309   -0.820535   -0.239465
C      -2.290953   -0.484478    0.462998
C      -3.441091    0.167593   -0.263186
C      -3.503372   -1.293684    0.137805
H       0.567695    2.069892   -0.777341
H      -0.540065    1.266558   -1.904868
H      -1.159894    1.981087   -0.405016
H       1.301305   -1.594258   -0.237341
H       2.074657    0.004280   -0.674459
H       1.166727    0.995179    1.505635
H       0.423731   -0.627385    1.897644
H      -2.116530   -0.204627    1.501143
H      -4.056972    0.885242    0.268486
H      -3.295914    0.380318   -1.315938
H      -3.391728   -2.026721   -0.653066
H      -4.162065   -1.591482    0.945681
