15

C      -0.013940    1.529513   -0.016396
C       0.004979    0.026980   -0.005531
C      -0.087670   -0.736775   -1.167864
N      -0.070987   -2.069840   -1.163528
C       0.040949   -2.656581    0.030994
C       0.056504   -4.159196   -0.002342
O       0.150116   -4.864879    0.966569
N       0.136934   -2.038755    1.213289
C       0.117730   -0.711681    1.179317
H       0.905978    1.940670    0.413089
H      -0.112804    1.916431   -1.033790
H      -0.848530    1.919848    0.575866
H      -0.178879   -0.253413   -2.139329
H      -0.029094   -4.556890   -1.034815
H       0.195390   -0.201062    2.138601
