21

C      -0.215659    1.519031   -0.006816
C       0.140035    0.028247    0.068499
C       0.791872   -0.494778   -1.197987
C       2.174706    0.036217   -1.578742
C       2.482271   -0.599721   -2.708873
C       1.275074   -1.484192   -2.961366
C       0.803864   -2.037423   -1.566776
C      -0.665567   -1.954346   -2.042548
C      -0.002677   -0.658048   -2.563171
H       0.668555    2.132535   -0.208839
H      -0.938088    1.711442   -0.807015
H      -0.655892    1.867647    0.932473
H       0.824726   -0.142840    0.909881
H      -0.764671   -0.546535    0.296386
H       2.748026    0.762139   -1.018009
H       3.370639   -0.532751   -3.321115
H       1.237473   -2.136374   -3.834846
H       1.285105   -2.834238   -0.991393
H      -0.969208   -2.681116   -2.801416
H      -1.439641   -1.854414   -1.278572
H      -0.458045    0.145752   -3.149386
