18

O      -0.107418    1.435706   -0.074790
C       0.021621    0.025204   -0.065347
C      -1.387843   -0.554439    0.105224
C      -1.415678   -2.050289    0.102160
C      -1.622218   -2.885941    1.126047
C      -1.559652   -4.303289    0.665506
O      -1.690652   -5.323397    1.308580
N      -1.313858   -4.216982   -0.690747
C      -1.198269   -2.860252   -1.162177
H       0.771939    1.820419   -0.133477
H       0.470432   -0.341410   -1.002462
H       0.660215   -0.320472    0.761942
H      -1.802742   -0.173734    1.043188
H      -2.010719   -0.158409   -0.706956
H      -1.818911   -2.628296    2.157501
H      -1.209202   -5.035441   -1.264869
H      -1.955405   -2.609926   -1.920625
H      -0.215320   -2.655460   -1.611918
