19

C       0.049298    1.502458   -0.217285
O       1.472634    1.449112    0.143071
C       1.188077    0.260054    0.910692
C       1.825851   -1.128570    1.037346
C       0.517119   -1.761505    1.595512
C      -0.177153   -0.720527    2.455566
C       0.682182    0.525647    2.356697
C      -0.722276   -0.984874    1.066680
C      -0.067307   -0.020188    0.100228
H      -0.503383    2.186705    0.434624
H      -0.082581    1.794465   -1.261959
H       2.135238   -1.550232    0.077726
H       2.649777   -1.208173    1.753130
H       0.454729   -2.818432    1.818033
H      -0.730177   -0.990825    3.346050
H       1.506442    0.548208    3.076979
H       0.114516    1.454336    2.447602
H      -1.657367   -1.504778    0.903387
H       0.195387   -0.544663   -0.824099
