18

C      -0.473497    1.398330   -0.086558
C       0.092035   -0.012031   -0.055590
N       1.383755   -0.199642   -0.816813
C       2.079018   -0.616150    0.415366
C       3.312214   -1.476629    0.519517
C       3.447502    0.010017    0.678829
O       3.939575    0.771678   -0.364820
C       0.839432   -0.449325    1.229808
O       0.541800   -0.570926    2.383092
H       0.294511    2.129293    0.182016
H      -0.847638    1.645992   -1.084354
H      -1.299619    1.484413    0.625991
H      -0.672339   -0.746351   -0.338560
H       1.312411   -0.952157   -1.495028
H       3.389918   -2.104270    1.401691
H       3.683963   -1.911681   -0.402998
H       3.640743    0.412135    1.670173
H       3.180394    0.922988   -0.957039
