11

F       0.001721    0.026254    0.003710
C      -0.016263    1.350790    0.010593
C      -1.219599    2.045015    0.030031
N      -1.240480    3.375037    0.036980
C      -0.052046    3.986028    0.024229
N       1.152539    3.407694    0.005441
C       1.167778    2.077595   -0.001433
C      -0.071657    5.430622    0.031962
N      -0.087346    6.586022    0.038126
H      -2.168833    1.516195    0.039970
H       2.131021    1.574877   -0.016700
