20

C       0.017617    1.513850   -0.100153
C       0.021658   -0.007462    0.037262
O       0.679267   -0.419271    1.235550
C      -1.390341   -0.605492   -0.046899
C      -1.401954   -2.128529   -0.018837
C      -2.811716   -2.777275   -0.080658
N      -2.845668   -3.520238   -1.353548
C      -1.697872   -3.366915   -1.866230
O      -0.756852   -2.633263   -1.229165
H       1.035266    1.904299   -0.015280
H      -0.395308    1.824993   -1.065024
H      -0.593531    1.975176    0.686683
H       0.625605   -0.442149   -0.766654
H       0.255408    0.036338    1.971792
H      -1.987538   -0.238507    0.800882
H      -1.891548   -0.260387   -0.959888
H      -0.803797   -2.483059    0.823650
H      -2.995199   -3.464101    0.752110
H      -3.611392   -2.027628   -0.066643
H      -1.372702   -3.786207   -2.812358
