19

C      -0.006738    1.457593   -0.008453
N       0.130990    0.013631    0.030527
C       0.648169   -0.683344   -1.038347
N       1.208419    0.037253   -2.014680
C       1.756701   -0.615764   -3.044510
C       1.767374   -1.995028   -3.165044
C       1.172964   -2.736662   -2.140086
C       0.601198   -2.103759   -1.050518
C      -0.031574   -2.868192    0.080999
H       0.966418    1.920425   -0.183876
H      -0.681831    1.801404   -0.803997
H      -0.391715    1.795398    0.956903
H      -0.533992   -0.480419    0.600449
H       2.205983    0.010025   -3.812819
H       2.220287   -2.476716   -4.023153
H       1.158832   -3.822260   -2.188063
H       0.433860   -2.623440    1.044251
H      -1.104362   -2.649100    0.178880
H       0.064823   -3.945898   -0.073017
