18

C       0.589647    0.858754    1.572058
C       0.401835   -0.236113    0.546485
C       0.123848    0.010982   -0.895318
C      -0.004399    1.386775   -1.508960
C       1.489146   -0.593837   -0.493331
C       2.732992    0.183002   -0.599992
O       2.878952    1.374457   -0.423927
C       3.915907   -0.634489   -0.968168
N       4.840331   -1.267540   -1.254894
H       1.151853    1.705910    1.179954
H      -0.387613    1.217054    1.913374
H       1.126586    0.476513    2.445939
H      -0.059597   -1.133304    0.951800
H      -0.507555   -0.735131   -1.371552
H       0.712855    2.096110   -1.096791
H       0.155489    1.339699   -2.590763
H      -1.014746    1.774460   -1.339224
H       1.619749   -1.649918   -0.699504
