23

C      -0.055293    1.565035   -0.290044
C       0.021512    0.160898    0.320460
C      -1.328741   -0.520206    0.340307
N      -1.780197   -1.154166   -0.910806
C      -1.551221   -1.993020    0.281500
C      -0.450734   -2.999615    0.187398
N      -0.203568   -3.820505    1.388203
C      -0.674559   -4.474112    0.155876
C      -2.029136   -5.140008    0.198017
H       0.926892    2.047211   -0.305366
H      -0.426198    1.515020   -1.318524
H      -0.733541    2.209735    0.280463
H       0.729867   -0.445158   -0.252537
H       0.406968    0.217148    1.346661
H      -2.082889    0.030641    0.904735
H      -2.774169   -1.006830   -1.059811
H      -2.425975   -2.347749    0.821548
H       0.414363   -2.652725   -0.372645
H       0.792581   -3.967187    1.523286
H       0.069369   -5.029770   -0.415260
H      -2.727616   -4.585262    0.828251
H      -2.455241   -5.221242   -0.807862
H      -1.944767   -6.150985    0.611182
