21

C      -0.178329    1.516699   -0.026572
C      -0.040961   -0.004986   -0.093323
C       0.840559   -0.459663   -1.259430
O       2.165464    0.018811   -1.130260
O       0.601337   -0.544791    1.063265
C      -0.154747   -0.542570    2.253742
C       0.621001   -1.368622    3.287333
C      -0.062825   -1.425677    4.571797
C      -0.649826   -1.455572    5.619948
H       0.811513    1.978144    0.006612
H      -0.700144    1.883776   -0.916163
H      -0.751147    1.836252    0.847918
H      -1.036320   -0.467187   -0.201784
H       0.815323   -1.558979   -1.311072
H       0.447298   -0.065823   -2.202239
H       2.450466   -0.241336   -0.246186
H      -0.309781    0.475360    2.637481
H      -1.146744   -0.988864    2.084508
H       0.770887   -2.378768    2.888487
H       1.618612   -0.929286    3.407609
H      -1.157030   -1.490628    6.552036
