17

O      -0.132400    1.317827    0.033571
N       0.014204   -0.080099    0.010879
C      -1.117483   -0.654671    0.009709
C      -2.532958   -0.116695    0.019678
C      -3.241766   -1.467460    0.037444
C      -2.502881   -2.482491    0.953463
C      -2.891047   -3.547011   -0.075974
N      -2.507289   -2.375972   -0.986264
C      -1.320154   -2.129372   -0.000437
H       0.782482    1.618944    0.023157
H      -2.743577    0.504480    0.895900
H      -2.755414    0.471415   -0.876107
H      -4.329991   -1.492211   -0.036004
H      -2.489640   -2.534762    2.048210
H      -2.241959   -4.419357   -0.191241
H      -3.944905   -3.829689   -0.155088
H      -0.459513   -2.786485   -0.112132
