19

O      -0.202597    1.469344    0.148523
C      -0.036287    0.063850    0.254418
C      -1.407365   -0.558005    0.014300
C      -1.946962   -0.333083   -1.424568
O      -2.132237   -1.622251   -2.001713
C      -2.444209   -2.502191   -0.939679
C      -1.468318   -2.111114    0.185027
C      -0.126583   -2.779068   -0.044078
O       0.605883   -3.155427    0.836076
H       0.655413    1.886244    0.270238
H       0.685070   -0.307003   -0.492019
H       0.340848   -0.228349    1.245820
H      -2.091739   -0.103674    0.736773
H      -2.899640    0.214085   -1.398983
H      -1.250951    0.224490   -2.056209
H      -3.486539   -2.382951   -0.601957
H      -2.315005   -3.526482   -1.302903
H      -1.812294   -2.387050    1.184335
H       0.146392   -2.908568   -1.116272
