18

C      -0.319425    1.421453    0.106747
C       0.113330    0.003911   -0.104746
N      -0.720153   -1.147153    0.331979
C       0.673800   -1.032898    0.819427
C       1.535119   -1.660853   -0.278574
C       1.038403   -0.505171   -1.218834
O       0.558901   -0.744064   -2.538145
C      -0.428394   -1.648131   -2.754467
O      -0.846333   -1.851037   -3.856704
H       0.520959    2.111967   -0.019443
H      -1.097014    1.707177   -0.610452
H      -0.723758    1.563283    1.114823
H      -1.337259   -0.798647    1.065419
H       0.891434   -0.956715    1.877133
H       2.612031   -1.622827   -0.107405
H       1.241517   -2.675454   -0.554391
H       1.846006    0.214602   -1.366898
H      -0.788231   -2.136424   -1.837502
