18

C       0.100331    1.547030    0.024735
C       0.067552    0.033926    0.238695
O       0.274359   -0.298513    1.608893
C      -1.226364   -0.591052   -0.308876
C      -1.268391   -2.077191   -0.197173
C      -0.692496   -3.018204    0.593102
N      -1.129679   -4.283058    0.208221
C      -1.934988   -4.049919   -0.772714
O      -2.079130   -2.741420   -1.088385
H       1.019176    1.963642    0.444871
H       0.056701    1.800577   -1.039200
H      -0.752226    2.029833    0.518907
H       0.917819   -0.424149   -0.279214
H      -0.442139    0.094577    2.120418
H      -2.085487   -0.141934    0.214284
H      -1.343206   -0.316244   -1.363699
H      -0.002913   -2.868393    1.405933
H      -2.497018   -4.755030   -1.364898
