16

C      -0.006871    1.481715    0.053188
O       1.331623    2.008842    0.045949
C       2.165564    1.416692   -0.839224
C       3.286241    1.884800   -1.467595
C       3.846894    0.770121   -2.176576
C       3.058624   -0.324558   -1.952938
N       2.015592    0.071757   -1.125510
C       0.978302   -0.667811   -0.565544
C      -0.018220   -0.024376    0.044394
H      -0.468413    1.883576    0.958174
H      -0.556409    1.886432   -0.813386
H       3.665312    2.892309   -1.418015
H       4.730368    0.792214   -2.795689
H       3.106161   -1.335494   -2.323154
H       1.065775   -1.744287   -0.643721
H      -0.830418   -0.559570    0.518035
