23

C       1.456374    0.870153   -0.658305
O       0.662045   -0.064012    0.038134
C      -0.274205   -0.767467   -0.756019
C       0.125125   -2.239287   -0.990747
C       0.306214   -2.941529    0.360071
O      -1.018921   -2.771838   -1.674863
C       1.329423   -2.334771   -1.919690
C       2.757168   -2.456617   -1.455440
C       2.091071   -3.626290   -2.134110
H       2.099536    0.394892   -1.411510
H       0.841070    1.634685   -1.156653
H       2.092029    1.363928    0.081785
H      -1.236310   -0.762809   -0.229228
H      -0.426891   -0.278439   -1.727229
H      -0.651598   -2.936988    0.887205
H       0.614691   -3.985281    0.243328
H       1.041008   -2.420845    0.978251
H      -0.757201   -3.621600   -2.044597
H       1.181047   -1.750544   -2.824698
H       3.520195   -1.909136   -1.997817
H       2.943272   -2.537385   -0.391228
H       1.849715   -4.488092   -1.521278
H       2.387476   -3.875737   -3.146923
