18

N       0.097668    1.120817    0.643573
C       0.054363    0.044382   -0.179286
O       0.985989   -0.311185   -0.881996
C      -1.268145   -0.735301   -0.136130
N      -2.355610    0.111503    0.352787
C      -1.568987   -1.634911   -1.373493
N      -1.654094   -2.885076   -0.529749
C      -0.309338   -3.045089    0.056237
C      -1.217898   -2.052504    0.659561
H       0.956809    1.637635    0.727481
H      -0.702998    1.335632    1.215532
H      -2.627235    0.780151   -0.364229
H      -3.175538   -0.458675    0.541628
H      -2.540003   -1.414196   -1.823316
H      -0.793274   -1.671435   -2.141019
H      -0.192157   -3.986361    0.584372
H       0.558492   -2.704294   -0.500203
H      -1.661806   -2.163020    1.645443
