15

C      -0.272050    1.426942   -0.569115
C      -0.041354    0.017557   -0.073409
C       1.014563   -0.833128   -0.664598
O       1.186573   -0.230141    0.617204
C      -1.197360   -0.660518    0.558348
C      -1.290719   -1.492301    1.633230
N      -2.618877   -1.816120    1.765216
N      -3.314073   -1.259673    0.884338
O      -2.414420   -0.476514    0.055668
H       0.647575    1.823452   -1.004290
H      -1.062721    1.442859   -1.324113
H      -0.576749    2.078374    0.255344
H       0.899786   -1.915111   -0.662498
H       1.630634   -0.422436   -1.463117
H      -0.531098   -1.856113    2.301400
