19

O      -0.044774    1.480268   -0.012995
C       0.024624    0.066391    0.026248
C      -1.364569   -0.577911    0.011399
C      -1.335609   -2.123631   -0.058051
C      -0.671642   -2.686083    1.122839
N      -0.178191   -3.123707    2.072656
C      -2.742336   -2.701622   -0.227478
C      -3.096769   -4.079703    0.183502
N      -3.638522   -2.915770    0.912419
H      -0.386593    1.785906    0.833217
H       0.579678   -0.229522   -0.871647
H       0.600557   -0.287966    0.893838
H      -1.928972   -0.270311    0.900155
H      -1.914099   -0.208317   -0.860493
H      -0.742169   -2.418706   -0.935038
H      -3.242921   -2.279138   -1.096654
H      -3.825994   -4.642194   -0.391885
H      -2.333972   -4.680690    0.670509
H      -3.129689   -2.804216    1.788036
