16

C       0.078599    1.398709   -0.048146
N      -0.059423   -0.035524    0.060612
C      -1.255122   -0.692166    0.027608
C      -2.500077   -0.033851    0.081790
N      -3.641791   -0.716557    0.072886
C      -3.586551   -2.042512    0.008264
C      -2.344604   -2.687729   -0.052741
O      -2.304216   -4.033036   -0.124887
N      -1.194418   -2.033862   -0.046042
H       1.140212    1.651175   -0.026802
H      -0.352151    1.797735   -0.977573
H      -0.402229    1.909016    0.794743
H       0.743071   -0.615646   -0.120479
H      -2.567500    1.046905    0.133541
H      -4.511684   -2.607652   -0.000103
H      -1.368437   -4.275501   -0.155712
