22

C       0.591735   -1.494837   -0.794242
C       0.123737   -0.244540   -0.016624
C       0.604302    1.045707   -0.697113
C      -1.375583   -0.335985    0.213514
N      -1.910888   -0.932447    1.211809
O      -0.968436   -1.441228    2.119996
C      -2.412190    0.221755   -0.751720
C      -2.709294    1.711491   -0.534842
O      -1.954139   -0.038454   -2.079384
H       1.680927   -1.478146   -0.908662
H       0.318961   -2.407087   -0.257215
H       0.137602   -1.525380   -1.787605
H       0.580157   -0.291799    0.976206
H       0.174953    1.156085   -1.694770
H       0.354888    1.932997   -0.106698
H       1.694599    1.016576   -0.795724
H      -1.534485   -1.832958    2.793073
H      -3.337365   -0.336300   -0.554819
H      -1.829607    2.332254   -0.714759
H      -3.503372    2.036255   -1.218486
H      -3.059865    1.881160    0.487170
H      -2.596115    0.338549   -2.689134
