14

O      -0.063982   -0.086574    0.000257
C      -0.010063    1.125287    0.010013
C       1.228800    1.893563    0.002185
C       1.322435    3.289839    0.013043
N       2.658711    3.598969    0.000143
C       3.411909    2.450267   -0.018404
C       2.555888    1.379306   -0.017632
C       0.325356    4.282925    0.033125
C      -0.515274    5.146616    0.050167
H      -0.934603    1.741902    0.026000
H       3.017752    4.539064    0.003998
H       4.488859    2.499053   -0.030488
H       2.819738    0.334252   -0.029634
H      -1.266248    5.897520    0.064979
