22

C      -0.345322    1.653942   -0.192955
C      -0.158409    0.213141   -0.093313
C       0.002058   -0.977054   -0.001195
C       0.177348   -2.428410    0.081342
C      -1.182078   -3.145734    0.221103
C       0.937306   -2.925882   -1.149583
C       2.421846   -2.851411   -1.221451
N       1.747076   -4.144579   -1.172279
C       1.920147   -4.951936    0.024822
H       0.615325    2.178707   -0.242327
H      -0.913665    1.921521   -1.090738
H      -0.891733    2.046323    0.672056
H       0.773712   -2.647035    0.975714
H      -1.726034   -2.778028    1.095039
H      -1.801144   -2.966336   -0.663165
H      -1.039408   -4.225058    0.326976
H       0.374888   -2.776319   -2.070915
H       2.929595   -2.605070   -2.150461
H       2.936427   -2.513155   -0.321366
H       2.027960   -4.379407    0.959894
H       1.071034   -5.634469    0.134443
H       2.823699   -5.558398   -0.095560
