18

C       0.028683    1.539657   -0.062683
C      -0.019214    0.017759    0.007345
O      -1.398287   -0.422590    0.038888
C      -2.113581   -0.325923   -1.101474
N      -3.357447   -0.550366   -1.076608
O       0.670984   -0.528156   -1.096965
C       1.504284   -1.611780   -0.677951
C       1.489114   -1.543411    0.821178
C       0.634181   -0.609554    1.215007
H       1.063127    1.883441    0.008834
H      -0.389060    1.891063   -1.010050
H      -0.554068    1.969899    0.755501
H      -1.512080   -0.082312   -1.982531
H      -3.736325   -0.464356   -2.018130
H       1.113875   -2.569763   -1.052464
H       2.502554   -1.467207   -1.110677
H       2.084502   -2.193106    1.449397
H       0.367150   -0.331212    2.224809
