14

N      -0.006844    1.418361    0.150017
C      -0.024896    0.028807    0.050605
C      -1.206653   -0.719899    0.035498
C      -1.170927   -2.111289   -0.004661
C       0.043759   -2.790361   -0.030682
C       1.233978   -2.062223   -0.020254
C       1.180305   -0.683043    0.018867
F       2.321357    0.036261    0.016763
H       0.859772    1.837476   -0.154283
H      -0.812448    1.880243   -0.245337
H      -2.158272   -0.197478    0.060348
H      -2.103383   -2.665327   -0.015493
H       0.072381   -3.873185   -0.060934
H       2.203476   -2.546368   -0.045879
