20

C       0.882922    1.441239    0.241310
O       1.019011    0.038537    0.501645
C      -0.136363   -0.634835    0.632938
O      -1.228071   -0.127976    0.535880
C       0.090895   -2.114590    0.862369
N       1.332998   -2.526178    1.537131
C       0.606594   -3.593232    2.262876
C      -0.726241   -2.846328    1.974176
C      -1.228450   -1.973167    3.116957
H       0.353864    1.934938    1.060314
H       1.898705    1.827204    0.156001
H       0.328067    1.610562   -0.685175
H      -0.079960   -2.601842   -0.112406
H       2.092532   -2.821050    0.934518
H       0.643774   -4.581078    1.781576
H       0.898886   -3.700808    3.313474
H      -1.532073   -3.473966    1.589934
H      -0.418320   -1.358998    3.524296
H      -2.025124   -1.305825    2.779142
H      -1.618248   -2.597206    3.928152
