23

C      -0.433466    1.511534   -0.221013
C      -0.038601    0.053546    0.005140
C       0.402478   -0.702894   -1.273245
C       1.317840   -1.841427   -0.774574
C       2.857402   -1.723449   -0.999645
C       3.067129   -1.917770    0.527234
O       4.058970   -1.187331    1.204924
C       1.558119   -1.617701    0.757066
C       1.143884   -0.152880    0.975502
H       0.404986    2.083834   -0.636177
H      -1.270314    1.594688   -0.922751
H      -0.736212    1.995019    0.714047
H      -0.902784   -0.479237    0.426984
H      -0.457629   -1.068015   -1.842850
H       0.953499   -0.024507   -1.937159
H       0.941242   -2.833785   -1.029571
H       3.337120   -2.445001   -1.665258
H       3.145190   -0.716472   -1.322553
H       3.278527   -2.966159    0.757391
H       3.918565   -0.252472    1.023339
H       1.040707   -2.280142    1.456055
H       1.952770    0.538293    0.694573
H       0.888312    0.071621    2.014913
