21

C      -0.065175    1.136993    0.765923
O       0.010184   -0.263441    0.642187
C      -1.045766   -0.806634   -0.116833
C      -0.901476   -2.314390   -0.128534
O      -1.135026   -2.786110    1.187631
C      -0.708405   -4.085148    1.462161
C       0.783382   -4.356521    1.555620
C      -0.053561   -4.201744    2.808881
O       0.060218   -3.049634    3.578982
H       0.787163    1.457809    1.369363
H      -0.015399    1.637429   -0.214351
H      -0.994419    1.453427    1.265173
H      -2.021023   -0.532095    0.317808
H      -1.023117   -0.429536   -1.153620
H      -1.627084   -2.752161   -0.831041
H       0.108383   -2.587154   -0.461501
H      -1.367550   -4.871094    1.094641
H       1.147267   -5.338285    1.271162
H       1.449256   -3.530660    1.327494
H      -0.250745   -5.079683    3.416033
H      -0.256479   -2.323982    3.021374
