15

C       0.036292    1.449894   -0.014134
N      -0.002433   -0.006267   -0.011011
C      -0.047364   -0.684970    1.192342
O      -0.057472   -0.142788    2.274305
C       0.007351   -0.673609   -1.231912
N      -0.025871   -2.004209   -1.340190
N      -0.001033   -2.191598   -2.658479
N       0.045001   -1.112690   -3.413640
C       0.051681   -0.115232   -2.527074
H       0.948844    1.813044   -0.498561
H      -0.832511    1.860266   -0.539545
H       0.021001    1.773925    1.025263
H      -0.073215   -1.775150    1.050646
H      -0.016934   -3.117716   -3.053364
H       0.086463    0.912661   -2.844929
