22

C       2.892819   -0.599753    0.160734
N       1.538637   -1.117639    0.310173
C       1.308876   -2.159469    1.300796
C       0.763570   -0.784647    1.501891
C       1.279623    0.120411    2.603092
O       1.362807    1.476483    2.152242
C       0.420029   -0.006170    3.865672
C       0.915348    0.864238    5.013355
O       0.033444    0.673943    6.110790
H       3.518414   -0.689312    1.062316
H       3.387390   -1.152020   -0.644456
H       2.845464    0.456928   -0.114337
H       0.660703   -2.979824    1.003381
H       2.147241   -2.452494    1.934037
H      -0.295177   -0.622989    1.284556
H       2.313496   -0.144198    2.849437
H       0.491472    1.728267    1.824748
H      -0.617453    0.271409    3.634616
H       0.398985   -1.052936    4.190241
H       1.947079    0.576356    5.276509
H       0.942697    1.913946    4.690531
H       0.307052    1.263526    6.819277
