21

C       1.627496    1.774223    1.022748
C       0.882511    0.469436    0.726656
C       1.452881   -0.714044    1.525713
C       0.718184   -2.039297    1.372850
C       0.881392   -2.792877    0.049845
C       0.255832   -2.151633   -1.108159
N      -0.233347   -1.662653   -2.033959
C       0.528038   -2.876523    2.589186
N      -0.618302   -2.195139    1.963184
H       2.688764    1.692613    0.762236
H       1.208358    2.606132    0.449366
H       1.568333    2.037148    2.085199
H      -0.181708    0.589766    0.965490
H       0.926191    0.259187   -0.345663
H       2.508468   -0.859149    1.256941
H       1.449726   -0.450632    2.591787
H       1.946534   -2.937743   -0.167065
H       0.434776   -3.786518    0.152913
H       0.510345   -3.961025    2.516248
H       0.917991   -2.496056    3.529440
H      -0.868636   -1.363844    2.492938
