18

N      -0.005072    1.180161   -0.188163
C       0.007249   -0.059066    0.005404
O       1.027956   -0.900199    0.392132
C       0.125168   -2.051144    0.419865
C      -1.043282   -1.154840   -0.049913
C      -2.252426   -0.989094    0.869394
C      -3.206073    0.115209    0.376880
C      -4.289735    0.410396    1.386501
O      -5.472539    0.368645    1.167089
H       0.912535    1.597832   -0.024307
H       0.459364   -2.828517   -0.270576
H       0.039446   -2.451475    1.433783
H      -1.364669   -1.368780   -1.073386
H      -2.789219   -1.943049    0.936474
H      -1.904235   -0.750552    1.882850
H      -2.622313    1.033877    0.225977
H      -3.675529   -0.154514   -0.573707
H      -3.905942    0.682262    2.399138
