17

C      -0.004588    1.540304   -0.016764
C      -0.020234    0.011632    0.003685
C      -1.437254   -0.561020   -0.037370
O       0.718263   -0.480670   -1.140651
C       1.808340   -1.227400   -0.811096
O       2.523406   -1.707710   -1.639263
C       1.926937   -1.323175    0.701122
C       0.749084   -0.524965    1.224004
O       0.438182   -0.323863    2.367199
H       1.020477    1.921287   -0.032159
H      -0.522336    1.908335   -0.906391
H      -0.505470    1.923791    0.875455
H      -1.960658   -0.201980   -0.927361
H      -1.417230   -1.654128   -0.066740
H      -1.985561   -0.246415    0.853911
H       1.890718   -2.365271    1.032244
H       2.880795   -0.913402    1.046344
