19

O       0.045098   -0.055337   -0.003169
C      -0.006711    1.153813   -0.133225
C      -1.293827    1.866898   -0.255329
C      -1.387555    3.202966   -0.267617
C      -0.217617    4.135571   -0.121840
C       1.138273    3.517095   -0.517027
C       2.273653    3.770530    0.516857
C       1.960500    2.388458    1.151835
C       1.246579    2.000590   -0.182448
H      -2.174121    1.233973   -0.313608
H      -2.370993    3.665009   -0.335383
H      -0.398519    5.048562   -0.700411
H      -0.192767    4.468336    0.927006
H       1.365316    3.775078   -1.554572
H       3.258226    3.780432    0.041390
H       2.183890    4.656380    1.151820
H       2.796024    1.761847    1.467285
H       1.252865    2.466500    1.982348
H       1.958459    1.497769   -0.842814
