20

O       0.035815    1.422952   -0.025394
C       0.012436    0.002371    0.003018
C      -1.409702   -0.558335   -0.056186
C      -1.454702   -2.081649   -0.092732
O      -0.815096   -2.587551    1.085374
C      -1.416691   -3.812373    1.489272
C      -2.821346   -3.783050    0.925131
N      -3.519617   -2.516124    1.228493
C      -2.844529   -2.694546   -0.074419
H      -0.383088    1.734917    0.783006
H       0.580309   -0.318063   -0.878251
H       0.530333   -0.394040    0.886574
H      -1.981839   -0.226894    0.818352
H      -1.908164   -0.162429   -0.949506
H      -0.930582   -2.451190   -0.992435
H      -0.873749   -4.681900    1.084281
H      -1.380121   -3.853779    2.582824
H      -3.383984   -4.702594    0.805791
H      -4.520123   -2.651071    1.103103
H      -3.425328   -2.746670   -0.989010
