19

C      -0.070798    1.477756   -0.076810
C       1.292621    0.836759    0.006162
C       0.050426   -0.022413    0.061362
C      -0.344254   -0.699824    1.312640
C      -0.230252   -0.266298    2.813110
C      -0.100738   -1.725003    3.225827
C      -1.474912   -1.076901    3.142748
C      -1.592078   -1.511532    1.652332
C      -0.213754   -2.161124    1.735517
H      -0.420105    2.035863    0.785508
H      -0.396061    1.882237   -1.028958
H       1.903650    0.801034   -0.889025
H       1.856587    0.965569    0.924011
H      -0.166896   -0.600623   -0.833802
H       0.160096    0.622600    3.291358
H       0.409836   -2.154254    4.077341
H      -2.211400   -0.917974    3.918858
H      -2.437162   -1.764702    1.025705
H       0.187090   -3.001472    1.184094
