19

C      -0.081641    1.539320    0.064382
C       0.039251    0.010472   -0.018190
C       0.555257   -0.394312   -1.358065
N       0.998022   -0.737753   -2.369850
N       0.826594   -0.538024    1.065656
C       2.235709   -0.120482    1.163623
C       2.882224   -1.292356    1.850290
C       2.053512   -2.329528    1.902448
C       0.738845   -1.995185    1.254540
H       0.891234    2.020132   -0.063188
H      -0.749096    1.912941   -0.715997
H      -0.482793    1.810319    1.043736
H      -0.967917   -0.415940    0.064980
H       2.699755    0.054942    0.175050
H       2.332008    0.814194    1.732421
H       3.900495   -1.260277    2.216339
H       2.266448   -3.305971    2.318295
H      -0.130523   -2.254059    1.875813
H       0.626726   -2.543740    0.300700
