15

C       0.336765    1.470024   -0.315411
C       0.001863    0.015709   -0.051266
O       0.835036   -0.897791   -0.870932
C       1.428948   -1.436622    0.249066
O       2.316455   -2.223543    0.295128
C       0.563555   -0.625623    1.233761
O       1.232701    0.264588    2.081341
C      -1.455795   -0.296459   -0.354052
O      -2.283768   -0.520819    0.487666
H       1.401758    1.644573   -0.152372
H       0.083705    1.739071   -1.345225
H      -0.226722    2.112047    0.367583
H      -0.183224   -1.236474    1.755224
H       1.669856   -0.245386    2.771719
H      -1.696089   -0.298134   -1.439360
