21

C      -0.161539    1.570592   -0.035696
C      -0.029276    0.054880   -0.013026
C       1.195771   -0.617031   -0.674647
C       2.134567   -0.310419    0.544432
C       2.598413   -1.774612    0.654383
C       1.108503   -1.872879    0.271615
C       0.285668   -3.107225    0.050086
O       0.850248   -3.818566   -1.045246
C       0.722086   -0.629965    1.152878
H       0.782101    2.065227    0.216036
H      -0.467946    1.923202   -1.026991
H      -0.917276    1.910785    0.681415
H      -0.988327   -0.415210   -0.265669
H       1.492242   -0.636382   -1.724879
H       2.714153    0.599193    0.701837
H       3.317976   -2.124521   -0.091678
H       2.873164   -2.131265    1.653548
H       0.290935   -3.719438    0.967182
H      -0.762030   -2.828940   -0.150359
H       0.353974   -4.634409   -1.159135
H       0.473870   -0.655350    2.217077
