19

O      -0.136505    1.461822    0.001016
C      -0.082712    0.046243   -0.034213
C      -1.453286   -0.502079    0.173089
C      -2.609752    0.126858    0.355516
C      -3.401560    1.325883   -0.118503
C      -4.328178    0.262653   -0.826018
C      -3.747591   -0.818230    0.160955
O      -3.190131   -2.050759   -0.256692
C      -1.776799   -1.984843   -0.001376
H       0.759517    1.797199   -0.093736
H       0.313303   -0.317642   -1.000267
H       0.598180   -0.349039    0.741270
H      -3.932858    1.851359    0.680896
H      -2.871325    2.050354   -0.735607
H      -5.406331    0.438472   -0.798884
H      -4.000423    0.065646   -1.848402
H      -4.421608   -0.971720    1.016183
H      -1.241319   -2.413734   -0.860369
H      -1.524762   -2.598821    0.879372
