18

C      -0.153743    1.214891    0.425906
O      -0.239086   -0.159020    0.093233
C       0.516828   -0.529759   -1.025713
C       2.087372   -0.385973   -1.032013
C       2.172211   -1.896971   -1.251401
N       1.546996   -2.507666   -0.057378
C       0.694303   -2.050920   -1.178667
C      -0.131773    0.018204   -2.296268
O       0.444640    0.314011   -3.310130
H       0.869601    1.502795    0.701871
H      -0.486214    1.866977   -0.396002
H      -0.809713    1.373076    1.284322
H       2.422736    0.211542   -1.880404
H       2.530119   -0.039831   -0.096932
H       2.885076   -2.438337   -1.859121
H       1.623171   -3.520697   -0.154631
H       0.023494   -2.731303   -1.688690
H      -1.239324    0.097371   -2.202366
