21

C       0.262217    1.551137   -0.223439
C      -0.016688    0.071075    0.062122
N       0.462849   -0.804358   -1.004623
C       1.728992   -1.297582   -0.711823
O       2.476931   -1.867744   -1.477952
N       1.968268   -1.022748    0.628085
C       2.963309   -1.784678    1.348118
C       0.755077   -0.530845    1.272703
C       1.019605    0.416737    2.437437
H       1.334531    1.737446   -0.334281
H      -0.232103    1.849661   -1.153924
H      -0.123744    2.192376    0.574555
H      -1.092717   -0.068665    0.212084
H       0.295595   -0.563890   -1.970126
H       3.644432   -2.211270    0.609721
H       3.531497   -1.148179    2.033640
H       2.511753   -2.603791    1.928699
H       0.169362   -1.386983    1.652020
H       1.644627    1.261276    2.136165
H       0.075855    0.803751    2.834775
H       1.526882   -0.107715    3.252378
