12

N       0.056040    1.382078   -0.146635
C      -0.044118    0.019751   -0.059942
C      -1.198368   -0.684218   -0.031195
F      -2.366645   -0.051806   -0.022578
C      -1.192326   -2.122226   -0.004200
N      -2.226161   -2.850527    0.024338
O       0.094847   -2.667789   -0.011029
N       1.276211   -1.883757   -0.017321
N       1.180625   -0.653123   -0.043490
H       0.937912    1.769195    0.152227
H      -0.762448    1.911606    0.108516
H      -1.977506   -3.839405    0.042360
