21

C      -0.089726    1.340501   -0.143732
C       1.442476    1.548099    0.016425
C       1.505956    0.171795    0.704583
C       0.138362   -0.184003    0.053722
O       2.648411   -0.589447    0.397502
C       2.771045   -1.784078    1.115291
C       2.113802   -3.072021    0.555516
O       3.383309   -3.756913    0.576825
C       4.089763   -2.531372    0.863850
H      -0.651090    1.780334    0.684931
H      -0.545510    1.663009   -1.081232
H       1.955151    1.499350   -0.948294
H       1.803070    2.417064    0.570657
H       1.400861    0.265304    1.796870
H      -0.588092   -0.749961    0.641938
H       0.299440   -0.687301   -0.903857
H       2.551983   -1.622229    2.179889
H       1.363518   -3.575255    1.175851
H       1.727550   -2.945208   -0.464369
H       4.626591   -2.141993   -0.010970
H       4.782523   -2.638742    1.705248
