23

C       0.017892    1.477335    0.062590
C      -0.004924    0.021556    0.021425
C      -0.021476   -1.182830   -0.001568
C      -0.047430   -2.645221   -0.062008
C      -1.496173   -3.165075   -0.151090
C       0.847546   -3.153159   -1.222176
C       1.047226   -4.654425   -1.242188
C       0.159328   -5.561233   -2.061209
C       1.589307   -5.326787   -2.478464
H       1.044162    1.861493    0.052906
H      -0.503691    1.910229   -0.798473
H      -0.468027    1.859107    0.967612
H       0.387005   -3.029609    0.873079
H      -2.090182   -2.794389    0.688518
H      -1.970988   -2.821944   -1.075964
H      -1.516998   -4.257525   -0.137412
H       0.415499   -2.822324   -2.175388
H       1.822059   -2.657261   -1.138676
H       1.395077   -5.067689   -0.297439
H      -0.107510   -6.531457   -1.656246
H      -0.622360   -5.100625   -2.656367
H       1.766124   -4.707152   -3.351928
H       2.302115   -6.135104   -2.358116
