23

C      -0.054450    1.728551    0.150291
C       0.055618    0.224159   -0.000793
C       0.467232   -0.538788   -1.239373
C       1.312936   -0.615679    0.020045
C       2.672437   -0.013319   -0.279531
O       3.556592   -1.129871   -0.418609
C       2.504667    0.763938   -1.607210
C       1.286133    0.134010   -2.340239
C       1.727838   -0.902224   -3.384038
H       0.719478    2.283738   -0.380534
H      -1.021805    2.076738   -0.229266
H       0.003220    2.013458    1.206975
H      -0.753723   -0.278239    0.526791
H      -0.157203   -1.374299   -1.540722
H       1.330417   -1.498544    0.649247
H       3.034726    0.643291    0.526331
H       4.432389   -0.784864   -0.619259
H       2.349847    1.827789   -1.410938
H       3.418318    0.690943   -2.207507
H       0.706726    0.916204   -2.846480
H       2.341599   -1.675575   -2.911573
H       0.866186   -1.386528   -3.855902
H       2.321917   -0.432297   -4.175373
