19

C      -0.336925    1.470667   -0.119834
C       0.028984    0.006443    0.048120
O       0.525209   -0.475199   -1.186727
C       0.907808   -1.827439   -1.143660
C       1.562038   -2.165675   -2.456979
C       1.360448   -3.486603   -3.094521
O       0.705889   -2.335922   -3.595103
C       2.855103   -1.473342   -2.780546
O       3.577071   -0.971007   -1.960361
H       0.541120    2.051982   -0.414368
H      -1.102055    1.588430   -0.892224
H      -0.724685    1.875858    0.819499
H       0.792267   -0.116974    0.834308
H      -0.852254   -0.581362    0.356773
H       1.632244   -2.007564   -0.333186
H       0.037725   -2.483346   -0.980000
H       2.139536   -3.905204   -3.730954
H       0.730449   -4.214486   -2.585124
H       3.094445   -1.486710   -3.867444
