17

C      -0.019527    1.478867    0.045688
C      -0.051651   -0.017736   -0.030769
C       0.792201   -0.784968   -1.082013
C       0.123532   -2.152531   -0.797849
C      -0.382472   -1.795215    0.688065
O       0.378567   -0.702586    1.192898
C      -1.395758   -0.869429   -0.055048
C      -1.312553   -1.827257   -1.233457
O      -2.086584   -2.265020   -2.034285
H       1.009429    1.824774    0.191569
H      -0.401509    1.915731   -0.882025
H      -0.626459    1.840322    0.879825
H       0.654283   -0.447408   -2.112733
H       1.850456   -0.746210   -0.815578
H       0.630319   -3.074128   -1.069586
H      -0.626562   -2.586389    1.392221
H      -2.300674   -0.450661    0.376883
