17

C      -0.273820    1.495988    0.071385
C       0.151509    0.062599   -0.007257
O      -0.639371   -0.921218    0.701856
C       0.740419   -0.783071    1.054067
C       1.584015   -1.915903    0.484653
C       1.613709   -1.645385   -1.035238
O       1.490104   -2.788638   -1.834717
C       0.531069   -0.599067   -1.314755
O       0.062979   -0.390199   -2.406783
H       0.552676    2.161620   -0.197349
H      -1.094706    1.679202   -0.628327
H      -0.609999    1.739238    1.082061
H       0.925931   -0.388056    2.049603
H       2.587551   -1.933306    0.916328
H       1.104389   -2.877935    0.684160
H       2.557644   -1.109340   -1.259846
H       1.044676   -2.501975   -2.644716
