15

C      -0.041635   -1.158512    0.114229
C      -0.038304    0.043669    0.079662
C      -0.013832    1.466521   -0.004284
O      -0.659621    2.295968    1.026403
C      -0.089081    3.274810    0.100294
C       1.218401    2.443326   -0.064647
C       1.636372    2.535601   -1.520158
O       0.350303    2.530409   -2.187556
C      -0.550139    2.436849   -1.125880
H      -0.052549   -2.220107    0.150237
H      -0.216672    4.331373    0.326623
H       1.958893    2.417511    0.731692
H       2.174132    3.459110   -1.762875
H       2.228736    1.678276   -1.858520
H      -1.587912    2.401091   -1.448016
