16

C       0.094066    1.283599    0.008463
O      -0.036675   -0.140605    0.002197
C      -1.320436   -0.600884    0.009045
O      -2.285657    0.125878    0.019684
C      -1.351215   -2.056086    0.002012
C      -2.436223   -2.917121    0.005584
C      -1.930260   -4.234937   -0.004757
C      -0.548629   -4.145685   -0.014319
N      -0.210597   -2.828561   -0.010010
H       1.165642    1.485411    0.001015
H      -0.382599    1.720121   -0.873071
H      -0.368489    1.711005    0.901916
H      -3.468068   -2.604037    0.014645
H      -2.502034   -5.149747   -0.005242
H       0.207130   -4.915147   -0.023671
H       0.717545   -2.441649   -0.014770
