18

C      -0.528596    1.339932    0.048319
N       0.000978   -0.017589    0.085280
C       1.395348   -0.224956   -0.283423
C       0.938775   -0.423283    1.123943
C       1.417811    0.521099    2.233946
C       0.418974    0.482317    3.383523
O      -0.199712    1.435397    3.774788
C       2.790388    0.036959    2.687011
O       3.801915    0.673115    2.559963
H       0.221584    2.127243    0.216025
H      -0.972362    1.505480   -0.937755
H      -1.314594    1.446500    0.801188
H       1.605707   -1.076223   -0.925375
H       2.008727    0.655259   -0.475641
H       0.774321   -1.442580    1.474456
H       1.519350    1.549420    1.886466
H       0.282565   -0.524409    3.841674
H       2.800787   -0.983543    3.132372
