20

C       0.046498    1.576463   -0.027481
C       0.065276    0.055150    0.129559
O       0.712146   -0.337346    1.340548
C      -1.327698   -0.552242    0.047656
C      -2.007489   -0.777130   -1.312265
C      -1.191762   -2.064610   -1.649220
C      -2.499780   -2.811054   -1.875704
N      -2.900559   -1.901805   -0.717933
C      -1.476555   -2.069588   -0.114404
H       1.058557    1.979341    0.065067
H      -0.358617    1.870519   -1.001446
H      -0.579261    2.038679    0.746262
H       0.692624   -0.375977   -0.659946
H       0.203467    0.027876    2.073366
H      -1.998308   -0.123005    0.805089
H      -2.432339   -0.055746   -2.013721
H      -0.228873   -2.146428   -2.163520
H      -3.057057   -2.613927   -2.797762
H      -2.537948   -3.876513   -1.625323
H      -1.269722   -2.869802    0.597644
