19

C       0.018003    1.502022    0.040710
C      -0.017922   -0.022292    0.172306
C      -1.426741   -0.600447   -0.022637
N      -1.416166   -2.053714    0.010000
C      -1.875825   -2.657884    1.017972
N      -1.926653   -4.027156    1.205970
C      -2.543722   -4.314767    2.420004
C      -2.840110   -3.141779    2.987193
O      -2.437925   -2.105883    2.161251
H       1.032068    1.890420    0.177617
H      -0.329631    1.823371   -0.947807
H      -0.624726    1.982216    0.787275
H       0.652228   -0.483075   -0.562794
H       0.353798   -0.322913    1.159887
H      -2.104730   -0.164420    0.725479
H      -1.798065   -0.288062   -1.008224
H      -1.648158   -4.674508    0.492039
H      -2.700593   -5.321363    2.766532
H      -3.300092   -2.867688    3.919448
