20

O      -0.176023    1.491029    0.528172
C      -0.011805    0.143359    0.090826
C       0.739883   -0.716945    1.124272
C      -0.340782   -1.235271    2.119061
C      -1.699433   -0.762521    1.547565
C      -1.413646   -0.486312    0.059732
C      -2.456593    0.386371   -0.659964
C      -3.777043   -0.238133   -0.701181
N      -4.814190   -0.747609   -0.729337
H       0.696786    1.875027    0.653406
H       0.472042    0.123386   -0.896881
H       1.235703   -1.551013    0.616776
H       1.527010   -0.134791    1.614221
H      -0.303405   -2.326481    2.182761
H      -0.181357   -0.857546    3.131635
H      -2.501208   -1.490090    1.691902
H      -2.008819    0.170466    2.028972
H      -1.330177   -1.442112   -0.472548
H      -2.531363    1.355441   -0.158094
H      -2.139061    0.588194   -1.689736
