22

C       0.313767    1.522517   -0.132684
C       0.031632    0.052750    0.072121
O       0.766391   -0.807824   -0.848808
C       1.221383   -1.659962    0.214150
C       2.620290   -1.308888    0.749488
N       2.024996   -0.234677    1.571117
C       2.508969   -0.044325    2.917444
C       0.638727   -0.704884    1.289173
C      -0.255555   -1.081744    2.446094
H       1.363722    1.734983    0.078755
H       0.087374    1.807596   -1.164879
H      -0.314056    2.128375    0.530693
H      -1.045579   -0.154349   -0.022621
H       0.955704   -2.709448    0.067269
H       3.044652   -2.130039    1.351498
H       3.361087   -0.977267    0.013970
H       3.538182    0.329932    2.878898
H       1.907005    0.709013    3.435220
H       2.514533   -0.963217    3.534003
H      -0.518008   -0.202577    3.046319
H      -1.187775   -1.519896    2.076758
H       0.219026   -1.809974    3.110904
