23

C       0.622132    1.691659    0.040494
C       0.065986    0.272148    0.025106
C       0.732815   -0.744702   -0.968799
O       1.660288   -0.292118   -1.925570
C       1.201201   -1.627825    0.220667
C       1.010708   -3.124593    0.104659
C       2.518937   -1.145084    0.904970
C       1.693755   -0.407665    1.998279
C       0.395382   -0.692977    1.210713
H       1.707330    1.723654    0.187660
H       0.408233    2.194171   -0.907971
H       0.171385    2.282194    0.845081
H      -1.013647    0.330498   -0.144416
H      -0.028560   -1.273895   -1.550999
H       2.363823    0.181191   -1.470377
H       1.695367   -3.546042   -0.641895
H       1.205651   -3.632482    1.056314
H      -0.010913   -3.374551   -0.203834
H       3.150848   -1.957246    1.273178
H       3.156632   -0.501991    0.288226
H       1.714153   -0.939730    2.953137
H       1.943209    0.638451    2.194347
H      -0.467638   -1.044841    1.778777
