12

N      -0.012241    1.329957    0.165209
C      -0.028231   -0.034848    0.028964
N      -1.142742   -0.684169   -0.014088
O      -1.048826   -2.076474   -0.043793
C       0.167672   -2.759633   -0.020574
N       0.190154   -4.021353    0.012046
N       1.345932   -2.016264   -0.049766
C       1.237004   -0.762964   -0.020059
F       2.324106   -0.004640   -0.057096
H       0.792259    1.803928   -0.214242
H      -0.897637    1.788513    0.005037
H      -0.759808   -4.392566    0.032791
