18

C      -0.166475    1.576257   -0.008350
C       0.005174    0.070854    0.080219
C      -1.289546   -0.671167   -0.233153
O       1.067653   -0.438058   -0.816875
C       1.640213   -1.166642    0.248830
C       2.220179   -0.263877    1.315307
C       2.840209    1.003214    1.038772
N       3.375137    2.009065    0.837680
C       0.723291   -0.572403    1.280946
H       0.763255    2.110004    0.185044
H      -0.516228    1.847556   -1.009625
H      -0.919994    1.907748    0.713583
H      -1.632057   -0.411766   -1.238870
H      -1.143814   -1.753600   -0.184821
H      -2.072846   -0.393207    0.480248
H       2.004923   -2.169878    0.060458
H       2.719229   -0.814774    2.109216
H       0.233265   -1.013798    2.138846
