16

O       0.175686   -0.029268    0.085879
C       0.045002    1.166498    0.082038
C      -1.289362    1.896919    0.113486
C      -1.384636    2.997989    1.195242
C      -0.066146    3.698873    1.493377
N       0.906014    2.905995    2.231570
C       1.225738    3.299516    0.835444
C       1.249660    2.125582   -0.083803
O       2.096432    1.941416   -0.922933
H      -1.387471    2.369014   -0.875353
H      -2.091678    1.161723    0.208068
H      -2.127827    3.738292    0.883892
H      -1.742919    2.560401    2.132576
H      -0.142483    4.754906    1.744514
H       1.446845    3.470451    2.880416
H       1.990328    4.049954    0.656509
