15

O      -0.150785    1.477563    0.203647
C      -0.034750    0.085658    0.114042
C      -0.670802   -0.784360    1.170460
C      -1.287431   -0.676621   -0.208713
C      -2.600335    0.069832   -0.399410
C      -3.766666   -0.743565   -0.069833
C      -4.716620   -1.429046    0.199722
H       0.393798    1.774975    0.939539
H       0.892603   -0.261851   -0.341276
H      -0.181569   -1.707356    1.461382
H      -1.187737   -0.270267    1.974677
H      -1.168426   -1.538483   -0.858087
H      -2.587752    0.978015    0.211789
H      -2.677089    0.411777   -1.439850
H      -5.561764   -2.025233    0.438689
