18

C      -0.033307    1.482761    0.045121
C       0.032625   -0.043768   -0.051280
C       0.750294   -0.502732   -1.309910
O       0.760531   -1.936032   -1.308745
C       1.354123   -2.519203   -2.347662
N       1.918640   -1.861264   -3.352068
N       2.364860   -2.894466   -4.124754
C       2.051412   -4.070995   -3.556361
N       1.407127   -3.878262   -2.422149
H       0.968479    1.925638    0.065955
H      -0.568393    1.914405   -0.807839
H      -0.553100    1.794414    0.955304
H       0.551147   -0.458346    0.820595
H      -0.977107   -0.469586   -0.046655
H       0.245667   -0.143922   -2.215863
H       1.782659   -0.132257   -1.343691
H       2.850677   -2.701819   -4.984064
H       2.305436   -5.026127   -3.991356
