18

C      -0.042764    1.414840    0.066982
C       0.105059   -0.074616   -0.039220
N       1.221524   -0.635966   -0.222472
O      -1.135574   -0.662351    0.090880
C      -1.224740   -2.080906    0.145886
C      -2.616949   -2.416220    0.694887
N      -2.711044   -1.927422    2.063991
C      -1.020440   -2.687851   -1.182752
N      -0.879051   -3.186888   -2.214998
H       0.931947    1.884830   -0.052554
H      -0.727395    1.780549   -0.704398
H      -0.468858    1.687100    1.037635
H       1.175593   -1.649542   -0.306555
H      -0.472534   -2.475599    0.840384
H      -3.364448   -2.010194   -0.004772
H      -2.723806   -3.505481    0.695132
H      -2.735653   -0.912947    2.060393
H      -3.576392   -2.244087    2.487598
