22

C      -1.942949    1.308646    1.973395
C      -1.809100   -0.195963    1.726556
C      -1.975329   -0.573725    0.248098
C      -1.745614   -2.051225    0.010519
C      -2.865653   -3.089760    0.047604
C      -4.265952   -2.680610    0.310712
O      -4.833009   -1.699811   -0.122404
N      -2.122549   -2.760827   -1.181969
C      -2.778448   -2.084169   -2.299250
H      -1.821741    1.549714    3.033937
H      -1.185400    1.870205    1.415310
H      -2.925649    1.675136    1.657734
H      -0.830262   -0.541330    2.085366
H      -2.558322   -0.734582    2.320451
H      -2.968508   -0.277954   -0.096913
H      -1.244143   -0.015297   -0.353231
H      -0.807509   -2.414569    0.435080
H      -2.629618   -4.073530    0.449776
H      -4.804881   -3.388362    0.980469
H      -3.563133   -1.376839   -2.017664
H      -2.005431   -1.563603   -2.872964
H      -3.219533   -2.848626   -2.945799
