14

N      -0.277483    1.392945    0.068421
C      -0.068896   -0.023024    0.019196
C      -1.198492   -0.797257    0.022139
O      -2.431871   -0.288450    0.067640
N      -1.120217   -2.149336   -0.021964
N       0.041006   -2.833819   -0.071188
C       1.131563   -2.133148   -0.075439
C       1.225582   -0.656654   -0.031579
O       2.297763   -0.055592   -0.038463
H       0.209433    1.779612    0.874908
H       0.170133    1.829838   -0.735187
H      -2.280221    0.678129    0.094282
H      -1.959328   -2.707679   -0.019272
H       2.058388   -2.697585   -0.115291
