16

C       0.042878    1.470265   -0.001399
C      -0.002396   -0.035361    0.042438
N       0.025532   -0.708900    1.130000
O       0.129157    0.130341    2.254288
C      -0.042583   -0.789704   -1.238588
C       1.192936   -1.555268   -1.697280
C      -0.043169   -2.294913   -1.271807
H       0.955855    1.837828    0.478120
H       0.007591    1.839933   -1.027680
H      -0.793933    1.893446    0.563391
H       0.118812   -0.503744    2.978525
H      -0.592023   -0.281304   -2.025523
H       1.450055   -1.522484   -2.750413
H       2.039462   -1.560614   -1.019956
H      -0.026065   -2.801071   -0.315000
H      -0.643462   -2.775637   -2.036068
