18

O      -0.181161    1.490696   -0.011780
C      -0.002285    0.084276    0.118593
C      -1.389848   -0.532508   -0.015302
O      -2.243446    0.005872    0.959895
C      -1.920512   -0.546559   -1.484361
C      -1.460998   -2.035707   -1.590958
C      -1.377357   -2.077812   -0.031312
C      -2.345151   -2.979254   -2.251319
N      -3.059847   -3.726398   -2.769448
H       0.624478    1.935591    0.265389
H       0.679209   -0.307043   -0.651732
H       0.405834   -0.175925    1.106043
H      -2.045131    0.951222    0.998044
H      -3.008318   -0.464955   -1.488365
H      -1.490970    0.160460   -2.195472
H      -0.468239   -2.112824   -2.042199
H      -0.520487   -2.593389    0.408441
H      -2.299154   -2.459860    0.409995
