19

O       0.138847   -0.157641   -0.458774
C       0.068160    1.018541   -0.217046
C       1.263357    1.947703   -0.053527
C       1.285258    2.955186   -1.170249
C       0.999984    4.260513   -1.088370
C       1.067445    4.954018   -2.432223
C       1.561934    3.856947   -3.376437
C       2.906009    3.236745   -3.102516
C       1.651237    2.570838   -2.570262
H      -0.915417    1.532688   -0.119111
H       1.159987    2.462524    0.909648
H       2.170627    1.335426   -0.040855
H       0.773004    4.788662   -0.168275
H       0.079646    5.327894   -2.734734
H       1.733251    5.826818   -2.416773
H       1.199169    3.845411   -4.397165
H       3.407076    2.761641   -3.939470
H       3.569558    3.710655   -2.385566
H       1.358915    1.602918   -2.963050
