21

C       0.166755    1.375489    0.203188
N       0.014713   -0.037149   -0.129012
C      -1.361965   -0.516099   -0.085524
C      -1.476288   -1.943013   -0.668075
C      -1.141009   -2.010694   -2.143544
C       0.270224   -2.293405   -2.617807
C      -0.804866   -3.338109   -2.772002
C      -1.845689   -0.509979    1.308043
N      -2.246395   -0.509140    2.391766
H       1.214891    1.660867    0.081202
H      -0.451911    2.050578   -0.414175
H      -0.104741    1.537742    1.250912
H       0.372915   -0.217915   -1.059547
H      -2.055497    0.139710   -0.649765
H      -0.812959   -2.602854   -0.098531
H      -2.500814   -2.294902   -0.503881
H      -1.721998   -1.331800   -2.764254
H       0.627826   -1.788640   -3.508688
H       1.032620   -2.463675   -1.864737
H      -0.761902   -4.206075   -2.122393
H      -1.183068   -3.545550   -3.766479
