25

C       0.196683    1.510896   -0.010066
C       0.045748   -0.011520   -0.047786
C      -1.415446   -0.544262   -0.001825
C      -1.375828   -2.089676   -0.063863
C      -2.179066   -0.069146    1.271945
C      -1.550079   -0.448787    2.616947
C      -2.152815   -0.052485   -1.174537
C      -2.769971    0.344679   -2.130531
C      -3.517085    0.820529   -3.287355
H       1.246392    1.794900   -0.134024
H      -0.378171    1.979789   -0.814204
H      -0.146718    1.934000    0.939214
H       0.507612   -0.395887   -0.964664
H       0.601144   -0.460322    0.784241
H      -0.796129   -2.501301    0.767919
H      -2.385804   -2.508066   -0.022144
H      -0.911603   -2.422893   -0.996345
H      -2.294021    1.018432    1.219898
H      -3.194444   -0.478409    1.217928
H      -1.458520   -1.532290    2.738983
H      -0.554153   -0.013203    2.744316
H      -2.173435   -0.080568    3.437997
H      -4.280191    0.096520   -3.594541
H      -4.027592    1.766085   -3.072524
H      -2.858699    0.989371   -4.146885
