14

C      -0.003559    1.471687    0.110713
C       1.295871    0.727740    0.042793
O       2.004443    0.416743    1.267424
C       1.149888   -0.413033    1.884051
C       0.014217   -0.769528    1.259689
N      -0.693254   -1.620228    2.097116
C       0.058559   -1.708759    3.148180
O       1.237023   -0.965972    3.099871
C      -0.036252   -0.046527   -0.033262
H      -0.321605    1.898855    1.055090
H      -0.241613    2.065964   -0.765351
H       1.986391    0.856674   -0.779086
H      -0.092116   -2.278071    4.049670
H      -0.387600   -0.504790   -0.950187
