18

O       0.016012    0.235091   -0.801123
C      -0.023173    1.266732   -0.171016
C      -1.382595    1.900026    0.149504
N      -1.398340    2.791640    1.297840
C      -0.790689    4.063714    1.055969
C       0.011705    4.673748    2.187113
C       0.723099    4.042504    1.033008
O       1.354009    2.828348    1.280743
C       1.315816    1.938914    0.186451
H      -1.711791    2.385986   -0.791334
H      -2.068627    1.065986    0.320719
H      -2.337088    2.890760    1.663239
H      -1.279697    4.746969    0.355164
H       0.041052    5.752548    2.286354
H       0.023593    4.111373    3.112991
H       1.236347    4.681275    0.313046
H       2.019168    1.131496    0.403903
H       1.665761    2.433961   -0.736799
