14

O       0.136500    0.275107    0.645435
C       0.121506    1.305007    0.055625
O      -0.972928    2.138815    0.006946
C      -0.700948    3.194818   -0.881939
C       0.454655    4.189901   -0.630472
C       1.378310    3.964402    0.518802
C       1.829150    2.711053    0.480967
N       1.243531    1.949294   -0.629922
C       0.623302    2.964691   -1.507076
H      -1.577956    3.524807   -1.422332
H       0.323259    5.175600   -1.060235
H       1.643563    4.717235    1.247434
H       2.455975    2.175321    1.178815
H       0.849586    2.933425   -2.565768
