14

N       0.017038    1.304366    0.062637
C      -0.032026   -0.038490    0.017044
C      -1.114291   -0.863832    0.010429
C      -2.456830   -0.429126    0.018426
N      -3.529617    0.010597    0.023779
C      -0.650923   -2.253469   -0.011438
N      -1.352087   -3.300999   -0.022901
O       0.735905   -2.231048   -0.020508
C       1.208421   -0.893276    0.000271
H       0.881639    1.797328   -0.074880
H      -0.835761    1.836995   -0.005293
H      -0.765112   -4.134679   -0.039943
H       1.826299   -0.701611   -0.887755
H       1.828407   -0.728421    0.891696
