16

O       0.021568    1.454482    0.039781
C       0.042095    0.044014    0.003035
C       0.726913   -0.618916    1.180658
C       0.016953   -1.615208    1.704127
C      -1.322808   -1.787573    1.022353
N      -2.440932   -1.540749    1.960751
C      -2.875205   -0.390769    1.663500
O      -2.336916    0.292953    0.615582
C      -1.369576   -0.607950    0.011045
H      -0.688376    1.703232    0.644459
H       0.557215   -0.214743   -0.930977
H       1.707222   -0.293940    1.510161
H       0.307478   -2.240660    2.539867
H      -1.441980   -2.774135    0.564529
H      -3.669927    0.140725    2.175399
H      -1.736718   -0.853946   -0.987042
