21

C       0.324720    1.393269    0.362483
N       0.248714   -0.050803    0.216133
C       0.604400   -0.613199   -0.860408
C       0.482655   -2.083342   -1.244041
O      -0.801859   -2.631606   -1.104980
C       0.909149   -1.633330   -2.684294
C      -0.148639   -1.744677   -3.770979
N       1.094374   -0.286532   -2.111005
C       1.576849    0.909343   -2.753520
H       1.360659    1.741988    0.484401
H      -0.114333    1.940283   -0.485373
H      -0.220234    1.690800    1.263149
H       1.237473   -2.721242   -0.766555
H      -1.228908   -2.127080   -0.401160
H       1.857236   -2.074273   -3.020765
H      -1.110880   -1.368863   -3.415873
H       0.146161   -1.183636   -4.664131
H      -0.280995   -2.791608   -4.059949
H       0.888626    1.269187   -3.530325
H       1.701440    1.700702   -2.013952
H       2.551758    0.725617   -3.224440
