16

C      -0.067942    1.522086   -0.003460
O       1.136223    0.724769   -0.003980
C      -0.115998    0.066311    0.011595
C      -0.475622   -0.991717    1.058642
C      -1.932780   -1.367650    0.732432
C      -1.581751   -2.582801   -0.037146
C      -0.101378   -2.120317    0.002719
C      -0.474633   -0.997742   -1.020622
N      -1.938323   -1.338826   -0.784898
H      -0.249449    2.082257    0.912698
H      -0.264402    2.063765   -0.927291
H      -0.127294   -0.965398    2.088033
H      -2.848808   -1.085893    1.235157
H      -2.086222   -3.529514   -0.183550
H       0.816463   -2.699545    0.026996
H      -0.188896   -0.946605   -2.069067
