17

C      -0.187676    1.534938    0.077066
C       1.342786    1.567554   -0.173685
N       1.419866    0.183120    0.326449
C      -0.045352    0.002198    0.266762
C       2.336806   -0.725400   -0.138436
C       3.559210   -0.588255   -0.771900
N       4.083582   -1.830485   -0.975171
N       3.275924   -2.733347   -0.519609
N       2.200369   -2.068352   -0.002212
H      -0.487756    2.055496    0.987209
H      -0.818358    1.859571   -0.749685
H       1.611708    1.652647   -1.235561
H       1.932646    2.286816    0.402091
H      -0.484974   -0.432084    1.170633
H      -0.371614   -0.580531   -0.606246
H       4.075028    0.307964   -1.072651
H       1.455616   -2.588282    0.431311
