19

C       0.115245    1.558392   -0.209660
C       0.098059    0.036983   -0.053168
C       0.713846   -0.715314   -1.247337
C       0.716604   -2.228865   -1.029324
O      -0.641752   -2.659670   -1.016980
N       0.021090   -0.427830   -2.498451
C       0.558142    0.307797   -3.504493
O       1.634542    0.868896   -3.470790
H       1.133777    1.934119   -0.350337
H      -0.472828    1.872816   -1.076611
H      -0.306760    2.044221    0.675349
H       0.659892   -0.249444    0.845132
H      -0.926933   -0.319749    0.098312
H       1.745705   -0.381005   -1.392169
H       1.275094   -2.713518   -1.842903
H       1.218432   -2.464528   -0.079070
H      -0.659033   -3.619580   -0.974074
H      -0.853018   -0.907888   -2.649674
H      -0.113652    0.347700   -4.385651
