14

N       0.007615    1.397799   -0.160978
C       0.020293    0.008595   -0.065420
C      -1.174661   -0.722387    0.022545
N      -1.220477   -2.050869    0.057193
C      -0.081714   -2.736721    0.008174
C       1.163139   -2.105276   -0.077467
O       2.272555   -2.891995   -0.119001
C       1.215093   -0.716222   -0.113553
H       0.839218    1.860901    0.175348
H      -0.829473    1.836097    0.195108
H      -2.126575   -0.195783    0.063502
H      -0.133657   -3.820812    0.038424
H       3.055966   -2.336327   -0.187500
H       2.169836   -0.199482   -0.184661
