13

C      -0.037450    1.495251    0.021739
C      -0.013634    0.003517    0.021165
N      -0.032881   -0.673539   -1.098388
O      -0.001494   -2.023773   -0.735414
C       0.035595   -2.114548    0.593981
C       0.031085   -0.873871    1.162786
C       0.062014   -0.516611    2.527099
C       0.087711   -0.181195    3.683148
H       0.851629    1.894940    0.519582
H      -0.071836    1.871297   -1.001938
H      -0.909849    1.866791    0.568477
H       0.062650   -3.109515    1.010003
H       0.110622    0.105953    4.705202
