15

O       0.125456    1.426436    0.108673
C       0.055212    0.068559    0.001669
C       0.341020   -0.805908    1.275356
C      -1.168811   -0.878390    1.576510
C      -1.288318   -0.892151    0.044026
C      -0.239432   -1.945226   -0.481065
O       0.605122   -2.089602    0.673978
C       0.430369   -0.757189   -1.206166
O       0.751583   -0.473634   -2.326303
H       0.074248    1.798632   -0.781532
H       1.106078   -0.544203    2.003075
H      -1.524299   -1.735675    2.151989
H      -1.549944    0.060488    1.983809
H      -2.189905   -0.713567   -0.535982
H      -0.488539   -2.894030   -0.945707
