19

C      -0.076857    1.577982   -0.088349
C      -0.039205    0.026559   -0.001109
C       0.703897   -0.454871    1.283962
C       0.062339   -0.032303    2.601415
O       0.826664   -0.637087    3.635438
C      -1.415434   -0.496548   -0.022471
C      -2.545588   -0.904624   -0.026080
C       0.690797   -0.493724   -1.168331
C       1.317402   -0.899059   -2.109540
H       0.940167    1.975774   -0.033446
H      -0.523935    1.889953   -1.034148
H      -0.670095    1.995809    0.727859
H       0.759869   -1.546821    1.266339
H       1.730873   -0.078191    1.242923
H       0.066446    1.063740    2.701570
H      -0.985374   -0.365080    2.627390
H       0.426344   -0.403683    4.477869
H      -3.540661   -1.275595   -0.041850
H       1.858732   -1.266385   -2.946145
