18

O       0.017468    1.361830    0.321333
C      -0.080930   -0.049118    0.412174
C      -1.292315   -0.473934   -0.415180
C      -1.459347   -1.972632   -0.428701
O      -1.944913   -2.601324    0.769804
C      -2.743323   -2.691097   -0.404615
C      -4.094777   -1.992971   -0.381078
C      -5.129518   -2.825488    0.233352
N      -5.943375   -3.493523    0.708385
H       0.739035    1.651730    0.886904
H       0.825582   -0.541950    0.023804
H      -0.217984   -0.382679    1.451447
H      -2.176997    0.024046   -0.009663
H      -1.158547   -0.116646   -1.443676
H      -0.624421   -2.511451   -0.883162
H      -2.774459   -3.686127   -0.850598
H      -4.028553   -1.051328    0.169244
H      -4.404429   -1.756154   -1.406321
