20

C      -0.225814    1.537319   -0.155207
C       0.006659    0.057523    0.118665
C       0.684686   -0.799599   -0.992545
N       1.787215   -1.042310   -0.053969
C       2.990908   -1.781545   -0.207060
C       3.582359   -2.442896    1.007247
C       2.959934   -3.290557   -0.071330
C       1.254866   -0.284736    0.969270
O       1.644156   -0.020998    2.078056
H       0.668044    2.005351   -0.581184
H      -1.054398    1.687619   -0.854580
H      -0.465358    2.061494    0.774637
H      -0.895425   -0.412464    0.521591
H       0.148657   -1.706238   -1.293584
H       0.982444   -0.239842   -1.887154
H       3.683325   -1.369159   -0.938742
H       4.662069   -2.432569    1.100316
H       3.048158   -2.318548    1.940206
H       1.999050   -3.746578    0.138608
H       3.607178   -3.870130   -0.719949
