18

N      -0.372504    1.184364   -0.304990
C      -0.602089    0.070024    0.239972
O      -0.563759   -1.058715   -0.499122
C      -0.906877   -2.279989    0.146697
C      -2.373256   -2.637823   -0.032438
C      -2.798246   -3.174828   -1.390344
C      -2.708627   -4.112938   -0.225476
C      -3.301544   -1.820318    0.701180
C      -4.058530   -1.127351    1.329321
H      -0.421169    1.924627    0.391861
H      -0.829847   -0.108847    1.298752
H      -0.283759   -3.048638   -0.319163
H      -0.653829   -2.231808    1.213498
H      -3.780064   -2.889455   -1.746852
H      -2.032228   -3.218670   -2.156410
H      -1.883376   -4.816234   -0.186052
H      -3.627441   -4.468945    0.223827
H      -4.735872   -0.515412    1.871750
