15

O       0.003268    0.091807   -0.277197
C       0.047254    1.286969   -0.083299
N       1.192094    1.966429    0.196244
C       2.582064    1.511579    0.076445
C       3.014293    3.005512   -0.005889
N       2.963858    3.606782   -1.335162
C       1.618731    3.936938   -1.303614
O       0.869369    4.395318   -2.117598
C       1.509405    3.399065    0.156798
H      -0.839944    1.950197   -0.087375
H       2.935059    0.987074    0.969706
H       2.783793    0.902254   -0.809098
H       3.811042    3.358481    0.645486
H       3.563141    3.455424   -2.135493
H       1.088533    4.027432    0.940992
