23

C      -0.199856    1.559223    0.002663
C       0.036301    0.050626    0.005962
C       0.899033   -0.471242   -1.161546
C       1.336668   -1.884390   -0.728828
C       2.794281   -2.300342   -1.012981
O       3.230328   -3.007423    0.138915
C       2.687096   -2.314691    1.253437
C       1.263024   -1.892793    0.837958
C       0.788084   -0.483418    1.242565
H       0.750430    2.104468    0.049392
H      -0.722733    1.879743   -0.904829
H      -0.804464    1.870821    0.861167
H      -0.939023   -0.455468   -0.041594
H       0.367038   -0.459111   -2.117784
H       1.777698    0.178904   -1.277030
H       0.655968   -2.635044   -1.139113
H       2.912819   -2.963806   -1.873611
H       3.422204   -1.407198   -1.177257
H       2.723261   -2.989525    2.112628
H       3.296929   -1.424798    1.488227
H       0.545747   -2.646093    1.174461
H       1.652733    0.164475    1.444353
H       0.170699   -0.479842    2.146113
