18

O       0.189648    1.359554    0.031568
C       0.025203   -0.041726    0.115673
C      -1.404715   -0.490796    0.133629
C      -2.504180    0.267447    0.163055
C      -3.788729   -0.547189    0.077158
O      -4.578721   -0.217278   -1.053454
C      -3.263973   -1.988854    0.028515
N      -2.525188   -2.235312   -1.233207
C      -1.787827   -1.939758    0.035513
H      -0.241733    1.650255   -0.779116
H       0.554341   -0.564370   -0.700851
H       0.527085   -0.346801    1.043868
H      -2.521447    1.350549    0.171649
H      -4.435875   -0.386155    0.946863
H      -4.074638   -0.547859   -1.810382
H      -3.831288   -2.798839    0.471867
H      -2.503946   -3.239322   -1.404957
H      -1.173037   -2.721118    0.470302
