16

C      -0.022580    1.490215    0.052885
C      -0.083582    0.004938   -0.029763
C      -0.084544   -0.828581   -1.074692
C       0.020527   -2.222664   -0.475671
C       1.462440   -2.331814    0.118882
O       1.398098   -1.399412    1.204894
C       0.023130   -0.938334    1.174456
O      -0.700187   -2.071765    0.765238
H       0.900273    1.811382    0.552003
H      -0.050351    1.950332   -0.938360
H      -0.856082    1.893760    0.641254
H      -0.019901   -0.591236   -2.128021
H      -0.339793   -3.075764   -1.046398
H       1.656935   -3.336829    0.508054
H       2.245268   -2.047068   -0.591002
H      -0.264318   -0.591700    2.165745
