17

N       0.270814   -0.137218    1.395314
C       0.136271    0.571435    0.492778
C      -0.046989    1.480971   -0.658424
O       1.083920    2.248943   -0.965331
C       1.386496    3.263778   -0.030558
C       2.260960    2.937338    1.241493
C       3.235065    4.016919    0.760894
N       3.743812    3.529674   -0.538433
C       2.448732    4.251653   -0.487373
H      -0.270292    0.875171   -1.541932
H      -0.927220    2.111080   -0.451909
H       0.466397    3.789927    0.261766
H       1.745442    3.159638    2.176933
H       2.683147    1.932321    1.271445
H       3.793492    4.725881    1.357912
H       4.431721    4.205675   -0.870518
H       2.292538    5.152610   -1.067476
