21

C      -0.309533    1.546238   -0.043102
C       0.000593    0.049374   -0.016800
C       0.873379   -0.459364   -1.201743
C       1.971191   -1.291125   -0.499487
C       3.198819   -0.441933   -0.163517
O       2.807238    0.738379    0.529129
C       1.955083    0.452990    1.633288
C       0.799811   -0.458835    1.211505
O       1.371901   -1.687143    0.743794
H       0.608465    2.136746   -0.111526
H      -0.934815    1.796045   -0.906276
H      -0.854223    1.858329    0.855220
H      -0.944171   -0.503980   -0.019989
H       0.292981   -1.081069   -1.887167
H       1.299286    0.368147   -1.775445
H       2.260238   -2.198905   -1.035930
H       3.890549   -1.039415    0.450680
H       3.722789   -0.111100   -1.065973
H       2.518100   -0.051283    2.434385
H       1.603462    1.417954    2.009731
H       0.165809   -0.689450    2.072976
