22

C      -0.816771    1.427655    0.477486
C      -0.058048    0.183456    0.002088
C       0.833178   -0.424007    1.075897
C       0.246568   -1.331523    2.134341
C       1.179186   -1.896512    1.087546
C       0.712490   -2.870436    0.029792
N       1.885611    0.452384    1.539245
C       3.008808    0.712232    0.814598
O       3.292270    0.199110   -0.246666
H      -0.127173    2.215706    0.797004
H      -1.435573    1.838296   -0.325794
H      -1.474552    1.194080    1.322055
H      -0.775310   -0.569110   -0.338917
H       0.569791    0.431913   -0.860808
H       0.604353   -1.238014    3.154480
H      -0.811177   -1.561711    2.050379
H       2.187512   -2.089162    1.440727
H      -0.333572   -2.714304   -0.248341
H       1.320789   -2.782340   -0.876217
H       0.800212   -3.899030    0.396015
H       1.721015    1.010795    2.362935
H       3.659282    1.454912    1.321505
