16

C       0.044769    1.449361    0.092641
N      -0.075048    0.020067   -0.106441
C       0.584598   -0.682498   -1.056083
N       1.267582    0.024912   -2.003161
H       1.620326   -0.534188   -2.767607
H       0.917890    0.933414   -2.261923
C       0.604687   -2.079713   -1.056970
C       1.233102   -2.787284   -2.106186
C       1.779767   -3.350874   -3.024239
C      -0.017438   -2.749546    0.021837
N      -0.555780   -3.221442    0.938461
H       1.093282    1.767865    0.122496
H      -0.472988    2.022230   -0.688806
H      -0.419614    1.706420    1.045542
H      -0.525708   -0.529686    0.608710
H       2.259704   -3.872686   -3.813993
