12

C      -0.035739    1.519537    0.041840
C      -0.011877    0.026537   -0.000134
C      -0.027326   -0.819041   -1.062627
O       0.005191   -2.102221   -0.658840
N       0.043933   -2.151627    0.711986
C       0.034205   -0.889520    1.099757
C       0.066807   -0.554701    2.483747
N       0.091975   -0.222865    3.591201
H       0.852883    1.915786    0.543474
H      -0.070252    1.937172   -0.966826
H      -0.908454    1.886314    0.591524
H      -0.059660   -0.662537   -2.129543
