14

O      -0.109506    1.359739   -0.044154
C       0.057332   -0.001268   -0.049514
C       0.981831   -0.844431   -0.933321
C       0.109933   -2.034498   -0.434471
O       0.435500   -2.142428    0.983014
C      -0.283877   -0.917945    1.147818
C      -1.065217   -1.021424   -0.121778
C       0.024924   -3.285861   -1.143184
N      -0.055069   -4.272048   -1.740001
H       0.557573    1.753950    0.529634
H       0.812626   -0.637397   -1.991676
H       2.048508   -0.913820   -0.702830
H      -0.548730   -0.581518    2.140782
H      -2.111894   -0.986119   -0.386483
