19

C      -0.092144    1.539808    0.022284
C       0.108874    0.019731   -0.020347
C       0.821859   -0.452335   -1.255982
C       2.238549   -0.141647   -1.767084
O       3.247763   -0.614634   -0.901338
C       1.710681   -1.098947   -2.854854
C       0.897862   -1.921222   -1.807934
O      -0.364733   -1.834137   -2.535380
C       0.266272   -0.531909   -2.720950
H       0.866626    2.068374    0.004957
H      -0.680666    1.886029   -0.833990
H      -0.620268    1.839015    0.932413
H       0.677972   -0.303904    0.859712
H      -0.861441   -0.490072    0.024995
H       2.427218    0.893447   -2.084420
H       4.097459   -0.520968   -1.342972
H       2.184270   -1.474994   -3.761501
H       1.145975   -2.848750   -1.296034
H      -0.248110    0.219316   -3.319303
