19

C       0.239851    1.284127    0.194078
O      -0.186731   -0.015485   -0.181576
C       0.542723   -0.568247   -1.238782
C       1.891938   -1.211455   -0.893242
C       0.687773   -2.075077   -1.192168
C       0.010998   -2.855946   -0.089664
O       0.640731   -2.685832   -2.450943
C       0.392951    0.098868   -2.507197
C       0.251226    0.707422   -3.534518
H       1.291572    1.285669    0.513884
H       0.121814    1.997550   -0.630873
H      -0.391621    1.589489    1.030911
H       2.672351   -1.157022   -1.643222
H       2.213075   -1.119842    0.138964
H      -0.028786   -2.281691    0.836498
H      -1.010647   -3.110073   -0.386657
H       0.555231   -3.789094    0.099368
H       1.253936   -3.429181   -2.438349
H       0.118252    1.221505   -4.453985
