23

C      -0.077148    1.548080    0.039838
C       0.005539    0.015080    0.002889
C       0.643124   -0.444407   -1.321866
C       0.614878   -1.962473   -1.595864
C       1.582669   -2.766748   -0.760465
C       1.612973   -2.776999    0.570411
C       0.666026   -2.017753    1.472776
O       0.972260   -2.248714    2.846538
C       0.711085   -0.497930    1.270420
H       0.923787    1.995360    0.022927
H      -0.628973    1.937271   -0.822262
H      -0.579977    1.896764    0.947740
H      -1.024976   -0.373228    0.020903
H       0.110645    0.057771   -2.139606
H       1.682011   -0.091716   -1.367855
H      -0.411139   -2.329407   -1.441448
H       0.833740   -2.129833   -2.655263
H       2.318174   -3.359128   -1.299481
H       2.374030   -3.356843    1.089406
H      -0.368403   -2.349605    1.266014
H       0.947912   -3.198967    2.997752
H       1.756635   -0.166048    1.284358
H       0.225310   -0.053233    2.146619
