17

C       0.032881    1.608432   -0.264940
C      -0.008855    0.117328    0.109762
C      -1.403445   -0.424949    0.147885
C      -2.125162   -0.913089    1.231007
N      -3.358487   -1.266918    0.712929
C      -3.332386   -0.989382   -0.605210
N      -2.171900   -0.480124   -0.984019
C      -1.844324   -1.095931    2.635788
O      -2.651321   -1.555661    3.424347
H       1.066250    1.960144   -0.336743
H      -0.457460    1.770888   -1.228008
H      -0.483616    2.216124    0.484683
H       0.563483   -0.454462   -0.630532
H       0.478280   -0.042294    1.077129
H      -4.100741   -1.661914    1.269233
H      -4.174929   -1.173508   -1.255710
H      -0.830220   -0.786538    2.959356
