17

C       0.059675   -1.170563    0.026077
C       0.016320    0.030975   -0.002549
C      -0.017713    1.470858   -0.027398
C      -0.978300    2.209770    0.981590
C      -1.415638    3.127729   -0.157120
C      -0.188635    3.572256   -0.927314
O       1.066491    3.538803   -0.281952
C       1.356426    2.167330   -0.006785
C      -0.744823    2.220756   -1.195881
H       0.092756   -2.231603    0.050991
H      -1.782764    1.547375    1.304687
H      -0.500453    2.667406    1.853866
H      -2.360763    3.653514   -0.226735
H      -0.285422    4.377921   -1.644847
H       1.845451    2.101613    0.969578
H       2.021283    1.745488   -0.774223
H      -1.079150    1.803601   -2.135713
