17

C       0.052312    1.261546   -0.740781
N      -0.202280    0.396276    0.405588
C      -1.427717   -0.339074    0.332812
C      -1.536773   -1.602759   -0.565454
O      -0.555188   -2.525301   -0.070976
C      -1.815667   -2.467275    0.589425
C      -1.763753   -1.281092    1.573421
C      -0.787579   -1.366581    2.646452
N      -0.005724   -1.442289    3.494330
H       1.010650    1.768486   -0.601585
H       0.080345    0.738907   -1.711858
H      -0.726453    2.030551   -0.796686
H       0.569282   -0.248356    0.547120
H      -2.258555    0.351132    0.154990
H      -1.834104   -1.704457   -1.602416
H      -2.386544   -3.382468    0.682062
H      -2.746418   -1.038745    1.985609
