21

C      -0.029228    1.523052    0.037127
C      -0.021229    0.023596   -0.051658
C      -0.056130   -0.647974   -1.206812
C      -0.012093   -2.155408   -1.281370
C       0.139768   -2.775975    0.117253
C      -0.764254   -2.051457    1.119648
C       0.059777   -0.757571    1.252733
C       1.464981   -1.368483    1.428240
O       1.467835   -2.543532    0.611658
H       0.862312    1.894295    0.560222
H      -0.057726    1.987326   -0.952400
H      -0.894268    1.883267    0.609519
H      -0.111372   -0.104036   -2.147619
H      -0.916761   -2.544152   -1.773058
H       0.834058   -2.482836   -1.899013
H      -0.011474   -3.858796    0.081983
H      -1.776871   -1.880970    0.748230
H      -0.813914   -2.596487    2.067431
H      -0.225648   -0.138147    2.106744
H       2.266583   -0.697943    1.098944
H       1.651790   -1.644485    2.476808
