22

C       0.124519    1.509787    0.053253
C       0.068515   -0.029485    0.093626
C       0.758676   -0.539041    1.371535
N      -1.343786   -0.478207    0.085468
C      -2.294849   -0.156560    0.996325
O      -2.159653    0.590392    1.946187
C       0.674387   -0.576740   -1.198613
C       2.113060   -0.994579   -1.333817
C       1.022082   -2.035220   -1.395010
H       1.166500    1.841042    0.010663
H      -0.393165    1.889730   -0.833059
H      -0.351259    1.932234    0.939038
H       0.204988   -0.179254    2.240276
H       0.783662   -1.631997    1.412078
H       1.783149   -0.162843    1.437722
H      -1.589211   -1.168762   -0.606818
H      -3.255683   -0.664939    0.771666
H       0.257032   -0.087733   -2.076275
H       2.632804   -0.733465   -2.248655
H       2.739745   -0.983454   -0.450144
H       0.927432   -2.708613   -0.550326
H       0.793038   -2.490931   -2.352090
