18

C       0.470201    1.451334    0.042672
O       1.040155    0.220693   -0.410451
C      -0.298718    0.196799    0.087926
C      -0.525202   -0.556026    1.346744
C       0.563500   -0.928439    2.313593
C      -0.261112   -2.011764    1.671631
N      -1.674382   -2.243833    2.178866
C      -1.973249   -1.335787    3.304130
C      -1.937426   -0.783260    1.934622
H       0.891994    1.845823    0.965492
H       0.268478    2.185234   -0.736152
H      -1.054596    0.042113   -0.684906
H       1.550545   -0.853917    1.867182
H       0.539336   -0.680501    3.368777
H       0.173310   -2.798305    1.068229
H      -2.956746   -1.529976    3.723239
H      -1.220053   -1.095581    4.045068
H      -2.833195   -0.468560    1.407104
