18

O      -0.354380    1.517140    0.313794
C       0.038407    0.169080    0.177795
C       0.970588   -0.167141   -1.040894
C       1.905256   -0.893086   -0.060823
O       2.828860   -1.640523   -0.197566
C       1.146650   -0.351210    1.159816
C      -1.215930   -0.677082    0.210456
C      -2.383106   -0.282908    1.032972
N      -2.442500   -0.208356   -0.442355
H       0.416013    2.081799    0.201766
H       0.551709   -0.758928   -1.858388
H       1.446022    0.724633   -1.467102
H       1.686833    0.468274    1.647677
H       0.854471   -1.077370    1.922568
H      -1.017124   -1.738071    0.066401
H      -3.012261   -1.047489    1.479406
H      -2.315313    0.647468    1.587082
H      -2.302416    0.763412   -0.712867
