18

C       0.001740    1.495565    0.102370
C      -0.005200    0.003645   -0.004144
C       0.019732   -0.748360   -1.109815
C      -0.012548   -2.233877   -0.827417
C      -0.015624   -2.295230    0.692075
N       1.188627   -1.714458    1.338156
C      -0.008804   -0.874921    1.211714
C      -0.779695   -3.320426    1.428753
O      -1.460770   -4.177088    0.920748
H       0.893999    1.851651    0.632170
H      -0.018347    1.964635   -0.884708
H      -0.866081    1.859352    0.667132
H       0.083632   -0.354406   -2.118501
H      -0.908151   -2.724267   -1.226255
H       0.854750   -2.755897   -1.247524
H       1.253026   -2.073805    2.292620
H      -0.542566   -0.586052    2.113496
H      -0.677335   -3.240348    2.539157
