20

C       0.749592    1.288451    0.038596
C      -0.091787    0.013847   -0.030505
C       0.207063   -0.843584   -1.274326
C       1.184205   -1.853214   -0.737908
N       2.016860   -2.582804   -1.360386
O       1.937344   -2.384120   -2.749897
C       1.063369   -1.894721    0.773575
C       2.391890   -1.764974    1.516412
O       0.162025   -0.835099    1.098391
H       1.814462    1.068141   -0.093132
H       0.448660    1.990976   -0.746231
H       0.616561    1.774366    1.008841
H      -1.152335    0.282680    0.023100
H      -0.692093   -1.355301   -1.637512
H       0.623873   -0.281472   -2.112625
H       2.627513   -2.970050   -3.078827
H       0.581010   -2.835158    1.077936
H       2.908131   -0.841871    1.238798
H       2.216335   -1.755691    2.595515
H       3.038502   -2.611182    1.267575
