16

C      -0.244751   -1.044728   -0.825888
C      -0.082169   -0.001139   -0.252734
C       0.113605    1.272409    0.429867
C       1.471629    1.919723    0.199336
C       1.986211    2.806091    1.148859
N       3.143770    3.455581    1.025799
C       3.853436    3.233589   -0.084102
C       3.443072    2.366699   -1.092106
C       2.232456    1.698351   -0.946221
H      -0.392886   -1.972945   -1.319977
H      -0.675020    1.968838    0.110151
H      -0.038304    1.135541    1.507736
H       1.427702    2.997218    2.064633
H       4.794979    3.771080   -0.167479
H       4.061284    2.215771   -1.970292
H       1.881660    1.005099   -1.703301
