14

C      -0.070718    1.447715   -0.043407
N      -0.107398   -0.002066   -0.081367
C       0.573363   -0.630433   -0.925320
O       1.403573   -0.087981   -1.880937
C       1.988214   -1.132371   -2.633096
O       1.499830   -2.360876   -2.122387
C       0.638491   -2.111887   -1.085914
N       0.025441   -2.974797   -0.406661
H       0.586281    1.909127   -0.789159
H      -1.089222    1.827062   -0.182470
H       0.247673    1.763325    0.956336
H       1.702553   -1.033835   -3.687060
H       3.078995   -1.098809   -2.527087
H       0.251062   -3.917804   -0.727470
