17

O       0.003297    1.363938    0.427555
C      -0.036067   -0.016940    0.165346
C      -1.481212   -0.538619   -0.066376
C      -2.044666   -0.097028   -1.417053
O      -2.018689    1.331975   -1.459736
C      -1.530444   -2.053921    0.044736
O      -1.754402   -2.780774   -0.901387
C      -1.280434   -2.597156    1.370304
C      -1.085037   -3.039760    2.472584
H      -0.516982    1.785008   -0.270600
H       0.575458   -0.291630   -0.711543
H       0.398991   -0.516676    1.036516
H      -2.089606   -0.119497    0.745575
H      -1.435999   -0.528430   -2.221966
H      -3.068898   -0.472214   -1.541502
H      -2.231009    1.614766   -2.353678
H      -0.912220   -3.443914    3.440809
