18

C      -0.699978    1.177899   -0.364794
C       0.486125    0.341256    0.148432
C       1.244682   -0.295724   -0.923378
C       1.852803   -0.813935   -1.823383
C       2.603920   -1.443876   -2.912718
C       2.196020   -2.823202   -3.192613
C       1.865487   -3.955734   -3.426828
C       1.462146   -5.326343   -3.706754
H      -0.354447    1.976440   -1.027021
H      -1.400166    0.554042   -0.926862
H      -1.237734    1.632680    0.472604
H       1.155688    0.979291    0.739666
H       0.119033   -0.428813    0.839133
H       2.497033   -0.840036   -3.825171
H       3.677027   -1.422226   -2.674804
H       1.100180   -5.434054   -4.735255
H       2.297233   -6.023244   -3.574896
H       0.655914   -5.645984   -3.037283
