18

O      -0.125667    1.421654    0.013467
C      -0.017688    0.022424    0.036510
C       0.313039   -0.626144    1.435666
C      -1.138595   -1.062925    1.514100
O      -1.665718   -2.200918    2.171194
C      -2.931054   -1.514179    2.389243
C      -2.365947   -0.175097    1.846369
N      -2.560440    0.170952    0.421096
C      -1.423014   -0.690602    0.031595
H       0.758926    1.784530    0.124406
H       0.636669   -0.347223   -0.764313
H       0.992619   -1.478782    1.338299
H       0.684107    0.044654    2.216022
H      -3.745968   -1.950690    1.798162
H      -3.202660   -1.523215    3.450843
H      -2.368757    0.670129    2.537577
H      -3.453433   -0.108024    0.028983
H      -1.582891   -1.408810   -0.774461
