19

C      -0.046878    1.513429    0.010604
C      -0.067976   -0.007976    0.002660
C      -1.501293   -0.560705    0.019310
O       0.632619   -0.393582   -1.171599
C       0.866429   -1.780648   -1.315705
C       1.262364   -2.495810   -0.029009
O       1.770243   -3.590689   -0.041898
C       0.901935   -1.794656    1.275698
O       0.664517   -0.406142    1.153014
H       0.989334    1.856353   -0.001949
H      -0.561618    1.901125   -0.871098
H      -0.536839    1.891442    0.910442
H      -2.043129   -0.204889   -0.860488
H      -1.535777   -1.653095    0.014028
H      -2.018903   -0.214257    0.917247
H      -0.015055   -2.307134   -1.719610
H       1.671706   -1.902149   -2.045353
H       0.031743   -2.325573    1.697876
H       1.726857   -1.923923    1.981681
