21

C      -0.005625    1.416820   -0.059231
O      -0.018870    0.016711    0.097395
C      -1.309789   -0.581342    0.013944
C      -1.764059   -0.742649   -1.438743
C      -1.204512   -1.927724    0.730851
C      -0.882296   -1.766860    2.228762
O      -1.881260   -1.004342    2.908106
C      -0.675133   -3.067446    2.869714
C      -0.556376   -4.147894    3.384053
H       1.023051    1.748480    0.104051
H      -0.314764    1.733113   -1.066313
H      -0.658778    1.913286    0.674524
H      -2.031030    0.046053    0.559483
H      -1.063509   -1.378501   -1.989398
H      -2.757558   -1.200344   -1.483641
H      -1.822239    0.223355   -1.948468
H      -2.144791   -2.481023    0.622117
H      -0.417371   -2.526217    0.258399
H       0.030502   -1.167835    2.308799
H      -2.642411   -1.580590    3.040314
H      -0.430704   -5.093755    3.850469
