23

C       0.037165    1.557083   -0.054172
C       0.038733    0.026028   -0.020454
C      -1.407830   -0.499527   -0.021796
C       0.811911   -0.599911   -1.217056
C       1.297878   -1.961833   -0.720182
C       2.579744   -1.985407    0.066423
C       1.262378   -1.934833    0.797954
C       0.763714   -0.561710    1.240108
O       1.873360    0.219578    1.678211
H       1.056115    1.954571   -0.051670
H      -0.461452    1.925264   -0.957322
H      -0.502393    1.979042    0.803831
H      -1.938825   -0.175541   -0.923307
H      -1.432959   -1.593833    0.005509
H      -1.966095   -0.130099    0.845893
H       0.167668   -0.692479   -2.097164
H       1.653843    0.038555   -1.507746
H       1.006331   -2.853544   -1.263540
H       3.129620   -2.919484    0.112724
H       3.198213   -1.095564    0.079089
H       0.958391   -2.800856    1.373742
H       0.045288   -0.665778    2.066389
H       1.533188    1.061213    1.996957
