22

C       1.129892    1.115311   -0.248016
C       0.194513   -0.042208    0.045740
O       0.798831   -0.836659    1.079978
C       0.102194   -1.908378    1.501534
N      -1.020611   -2.228775    1.009112
C       0.843598   -2.626410    2.631826
O       0.120422   -3.774584    3.047500
C       2.298723   -2.953838    2.265665
C       3.080789   -3.564460    3.430544
H       2.104853    0.754386   -0.588402
H       0.703913    1.747319   -1.032925
H       1.283485    1.730115    0.643557
H      -0.788503    0.297291    0.388103
H       0.028226   -0.671191   -0.835015
H      -1.373532   -3.043167    1.511693
H       0.841667   -1.955805    3.500980
H       0.271949   -4.467180    2.393582
H       2.292335   -3.643896    1.408707
H       2.779477   -2.037215    1.914128
H       4.097000   -3.829703    3.124467
H       3.155915   -2.858003    4.264482
H       2.589299   -4.466044    3.806356
