23

C       0.172939    1.470775    0.348165
C       0.078331    0.029914    0.154588
C       0.004799   -1.163402    0.003545
C      -0.131532   -2.610458   -0.174654
C      -1.619694   -2.968850   -0.393179
C       0.770043   -3.178194   -1.289200
C       0.780968   -4.695153   -1.363023
C       0.897788   -2.415318   -2.585035
C       2.062465   -2.474379   -1.623113
H       0.769532    1.940916   -0.441432
H      -0.816869    1.940697    0.337403
H       0.644130    1.714627    1.306924
H       0.189236   -3.089551    0.763276
H      -1.767682   -4.051743   -0.405600
H      -2.233561   -2.550787    0.408638
H      -1.974831   -2.559591   -1.343463
H      -0.198355   -5.105293   -1.630671
H       1.494581   -5.038864   -2.117772
H       1.076989   -5.136089   -0.403077
H       0.956928   -2.982623   -3.508028
H       0.375936   -1.468401   -2.670398
H       2.306426   -1.567659   -1.082410
H       2.916741   -3.089752   -1.885546
