18

C       0.130139    1.618359   -0.066881
C       0.085369    0.098167   -0.010195
N       1.151469   -0.592194   -0.753040
C       1.721675   -1.214801    0.322364
O       2.674591   -1.939156    0.448111
C       0.646530   -0.620220    1.273497
C       1.142267    0.210259    2.424897
C       2.414287   -0.095584    3.096829
O       2.301004    1.014571    2.198587
H       1.109826    1.994156    0.234645
H      -0.084934    1.969071   -1.081995
H      -0.629108    2.046868    0.595984
H      -0.911412   -0.263467   -0.290126
H       1.415849   -0.573175   -1.727257
H      -0.033491   -1.392992    1.646360
H       0.365885    0.710383    3.006913
H       2.540320    0.170282    4.145002
H       3.014584   -0.923657    2.728580
