18

C       0.075724    1.494699   -0.130318
C      -0.046189   -0.013822    0.069687
O       0.626427   -0.456610    1.234743
C      -1.512105   -0.516613    0.081278
C      -2.192410   -0.562854   -1.317520
O      -2.010743   -1.984673   -1.398735
C      -1.611645   -2.064968   -0.017235
C      -2.258739    0.107027    1.163620
N      -2.817960    0.613880    2.040223
H       1.131257    1.776647   -0.147247
H      -0.381269    1.814784   -1.071825
H      -0.416117    2.037919    0.684251
H       0.446189   -0.536354   -0.758748
H       0.299033    0.055894    1.984097
H      -3.249841   -0.273311   -1.314492
H      -1.667972   -0.028057   -2.117224
H      -0.665898   -2.595317    0.124534
H      -2.389354   -2.510367    0.613489
