17

O       0.690867   -0.065862    1.099903
C      -0.092178   -0.360396   -0.053255
C      -1.517357    0.126524    0.120265
C      -2.466384    0.069370   -0.807521
C      -2.265121   -0.479416   -2.199806
C      -1.244840    0.309656   -3.019189
O      -1.538396    0.780219   -4.099195
C       0.140199    0.440761   -2.505364
C       0.619599    0.133904   -1.293802
H       0.731888    0.893515    1.185499
H      -0.100903   -1.462417   -0.089180
H      -1.738585    0.505491    1.114150
H      -3.459750    0.439002   -0.571351
H      -1.908127   -1.518550   -2.142331
H      -3.196923   -0.482248   -2.766788
H       0.824337    0.827336   -3.256497
H       1.688575    0.252719   -1.123371
