18

C       0.212001    1.560801    0.194983
N       1.162397    0.612040   -0.411574
C      -0.168991    0.137146   -0.000249
C      -0.370616   -0.793972    1.168272
C       0.159395   -2.248992    1.284724
C       1.527799   -1.602139    1.591427
N       0.556408   -0.707773    2.401861
C      -0.100307   -2.047240    2.792026
H       0.490840    1.893001    1.190073
H      -0.251936    2.314655   -0.435012
H       1.184599    0.734290   -1.420231
H      -0.885214   -0.055852   -0.799479
H      -1.420525   -0.678196    1.470200
H      -0.072981   -3.117018    0.656333
H       2.211639   -2.165529    2.233233
H       2.049256   -1.067938    0.802651
H      -1.133746   -1.946961    3.137536
H       0.503039   -2.627594    3.494722
