19

C      -0.089456    1.303906   -0.333807
C      -0.027583   -0.045535    0.301393
C      -1.057416   -0.922065    0.367700
C      -1.663184   -1.535027   -0.888620
C      -0.370355   -2.360530   -1.322436
C      -1.449683   -2.940501   -0.428813
C      -0.600732   -2.360316    0.740752
C       0.663415   -2.253734   -0.140436
C       1.260459   -0.875125    0.305601
H       0.515260    1.337423   -1.251737
H      -1.118947    1.580644   -0.580402
H       0.312489    2.084945    0.325659
H      -2.336922   -1.156368   -1.647668
H      -0.176959   -2.577827   -2.366375
H      -2.053878   -3.831468   -0.522594
H      -0.590899   -2.707790    1.772281
H       1.364656   -3.094935   -0.144583
H       1.986676   -0.423401   -0.381452
H       1.779371   -1.006324    1.266133
