15

N      -0.026749    1.326878    0.100177
C      -0.012063    0.052645   -0.375207
O       0.861492   -0.387906   -1.089474
C      -1.253992   -0.774951    0.007436
N      -0.987025   -2.194085    0.039829
C      -0.542096   -3.007356   -0.968596
N      -0.447182   -4.244650   -0.557412
N      -0.836516   -4.269239    0.770118
C      -1.149461   -3.046135    1.099935
H       0.741233    1.932608   -0.140986
H      -0.708934    1.656291    0.760245
H      -1.643036   -0.479628    0.985371
H      -2.034301   -0.552553   -0.731159
H      -0.287869   -2.636568   -1.947076
H      -1.500433   -2.716992    2.066369
