16

C      -0.008394    1.453646    0.052871
C       0.009279   -0.000968    0.052897
C      -0.000712   -1.208883    0.054396
C       0.030799   -2.621720    0.052352
C       1.160058   -3.403583   -0.111479
N       2.490443   -3.080281   -0.383600
N       0.720850   -4.701850   -0.047708
C      -0.639950   -4.660454    0.148097
N      -1.086658   -3.436853    0.207967
H       0.624287    1.867766    0.846806
H       0.344518    1.864128   -0.900573
H      -1.025193    1.828403    0.215017
H       2.581607   -2.074645   -0.477855
H       3.133599   -3.394247    0.336972
H       1.288052   -5.518054   -0.205386
H      -1.229062   -5.559403    0.250035
