18

C      -0.305810    1.253391   -0.308026
O      -0.076872   -0.114211   -0.052791
C      -1.264263   -0.864071    0.047290
C      -0.876201   -2.335493    0.242464
N      -0.231877   -2.926463   -0.904809
C      -0.920900   -3.290020   -2.013023
O      -2.108459   -3.091982   -2.181102
C       0.040404   -2.465456    1.446360
O       1.110663   -3.015414    1.417310
H       0.670207    1.738513   -0.378552
H      -0.849730    1.402433   -1.252876
H      -0.882684    1.727940    0.501036
H      -1.872108   -0.531050    0.907158
H      -1.882391   -0.777493   -0.856391
H      -1.807487   -2.878096    0.466169
H       0.735850   -3.189130   -0.782706
H      -0.276331   -3.789054   -2.762083
H      -0.357627   -2.007569    2.375646
