16

C       0.084088    1.498299   -0.026954
C      -0.060740    0.017655   -0.054722
C      -1.132718   -0.817382    0.032703
C      -2.585348   -0.511403    0.205400
C      -0.532274   -2.115649   -0.059152
N      -1.194840   -3.328915    0.058199
N       0.772218   -2.058651   -0.198652
O       1.076731   -0.689756   -0.185080
H       0.767507    1.807373    0.770575
H       0.491965    1.871882   -0.972345
H      -0.883138    1.975873    0.141954
H      -3.177436   -0.816446   -0.667262
H      -3.001072   -1.033074    1.075211
H      -2.753522    0.559090    0.349389
H      -2.087599   -3.355901   -0.414895
H      -0.614336   -4.113577   -0.208874
