14

C      -0.055223    1.510548   -0.002789
C       1.438817    1.898008   -0.026341
O       2.188570    1.483656    1.112362
C       2.286372    0.680107   -0.085563
C       1.337769   -0.460863   -0.081040
C       0.067826    0.017220   -0.008512
O      -0.824317   -0.959717    0.089743
N      -0.117062   -2.184968    0.061013
C       1.156161   -1.863674   -0.031521
H      -0.558561    1.896454    0.889455
H      -0.583884    1.898048   -0.880912
H       1.733000    2.849903   -0.459787
H       3.266073    0.650850   -0.549562
H       1.881353   -2.664615   -0.064646
