17

C       0.236341    1.588994   -0.262617
C      -0.005655    0.134574    0.093197
O      -0.080547   -0.257914    1.233047
C      -0.194006   -0.800547   -1.093330
N      -0.645553   -2.167196   -0.796741
C      -1.533184   -2.168098   -1.979272
C      -1.498759   -0.618474   -1.948599
O      -2.563361   -0.001026   -1.268608
H       1.008132    1.693554   -1.032407
H      -0.693462    2.001102   -0.672206
H       0.518222    2.148836    0.629958
H       0.695678   -0.731510   -1.742691
H       0.064376   -2.887264   -0.741096
H      -1.086193   -2.569440   -2.900821
H      -2.511959   -2.634974   -1.822735
H      -1.396565   -0.099487   -2.901730
H      -2.682483   -0.465684   -0.430396
