16

N       0.034926   -1.078166   -0.027510
C       0.000048    0.077418    0.001861
C      -0.010670    1.504389    0.012361
O      -0.997233    2.130054    0.808819
C      -0.662987    3.506406    0.541001
C       0.843261    3.561505    0.877905
C       1.233196    2.387206   -0.011943
C       0.277564    2.388700   -1.196804
C      -0.673195    3.563908   -1.002341
H      -1.340254    4.157021    1.088059
H       1.309220    4.503725    0.577546
H       1.037234    3.375731    1.936910
H       2.226249    1.963827   -0.060946
H       0.535206    1.966461   -2.157608
H      -1.667335    3.380028   -1.416469
H      -0.279782    4.506238   -1.392664
