13

N       0.002623    1.310530    0.008022
C      -0.045911   -0.034404    0.000974
N      -1.176701   -0.692058    0.003995
C      -1.115619   -2.038649   -0.003499
F      -2.292781   -2.660865    0.000083
C       0.027932   -2.759994   -0.013946
N       1.216765   -2.043187   -0.017131
C       1.296241   -0.677190   -0.010426
O       2.345585   -0.043580   -0.013295
H       0.912873    1.740946    0.003710
H      -0.842297    1.853211    0.014476
H       0.079171   -3.837424   -0.019892
H       2.101218   -2.531159   -0.024945
