21

C       0.027447    1.573348    0.104613
C       0.008202    0.046622    0.037143
O       0.745603   -0.528978    1.115115
C      -1.418683   -0.513456   -0.030934
C      -1.446163   -2.039234   -0.148437
C      -2.876043   -2.609971   -0.175816
N      -3.612232   -2.124523   -1.347271
C      -2.841217   -4.087701   -0.093494
N      -2.835278   -5.243956   -0.070321
H       1.056310    1.937433    0.168108
H      -0.446081    2.015905   -0.777516
H      -0.517907    1.930161    0.987767
H       0.553782   -0.275655   -0.859399
H       0.372494   -0.190344    1.936991
H      -1.961355   -0.204240    0.875624
H      -1.951910   -0.065434   -0.875293
H      -0.926518   -2.356889   -1.062172
H      -0.896210   -2.481655    0.686573
H      -3.409351   -2.252986    0.714308
H      -3.194840   -2.505966   -2.192407
H      -4.569810   -2.462335   -1.324236
