17

C      -0.028074    1.440062    0.023887
N      -0.012521   -0.005689   -0.047367
C       0.564833   -0.652069    0.901802
N       1.184428   -0.047334    2.011781
N       1.801296   -0.660430    3.031914
C       1.841546   -1.953423    3.006616
C       1.255090   -2.748274    1.949249
N       1.416199   -4.121904    2.010527
C       0.631250   -2.093082    0.932755
H       0.982234    1.887981    0.023303
H      -0.551662    1.839402   -0.849003
H      -0.552478    1.827677    0.916252
H       1.187575    0.956303    2.084850
H       2.354599   -2.430049    3.836324
H       1.507162   -4.514740    2.935436
H       0.803692   -4.663009    1.418651
H       0.162898   -2.612176    0.104854
