18

O      -0.066871    1.415953   -0.167155
C       0.003202    0.031477   -0.073884
C      -0.081101   -0.545850    1.299114
C      -1.237402   -0.770974    0.328076
C      -2.463900   -0.045928    0.528899
C      -3.519792    0.522192    0.644089
N      -1.285325   -2.104241   -0.233691
C      -2.354816   -3.006705    0.186444
C      -2.337765   -2.436620   -1.190287
H      -0.659829    1.641837   -0.892384
H       0.644383   -0.470697   -0.796758
H       0.516069   -1.419107    1.531314
H      -0.249805    0.155063    2.107396
H      -4.440461    1.035272    0.774475
H      -2.051948   -4.034145    0.366041
H      -3.110528   -2.617819    0.864451
H      -3.084605   -1.678268   -1.412023
H      -2.020327   -3.039530   -2.036089
