17

C      -0.041503    1.365199   -0.127353
N      -0.033024   -0.042733    0.184547
C      -1.183054   -0.964640    0.041568
C      -0.746164   -2.107959    0.995080
C       0.381519   -2.249003   -0.079916
C      -0.728788   -1.884582   -1.132395
C       1.064478   -0.870768    0.031846
O       2.230562   -0.559912   -0.038985
H       0.993972    1.711864   -0.096865
H      -0.448383    1.570057   -1.128189
H      -0.625708    1.931673    0.605989
H      -2.149996   -0.466782    0.092923
H      -0.460042   -1.827419    2.010781
H      -1.432095   -2.957947    0.996518
H       1.038604   -3.110428   -0.164955
H      -1.410154   -2.713993   -1.335954
H      -0.417448   -1.400492   -2.061645
