18

C      -0.125657    1.587469   -0.047940
C       0.049218    0.067128   -0.000037
N       0.710330   -0.469930   -1.179714
C       0.092655   -0.787776   -2.373999
C       1.093793   -1.190280   -3.213258
N       2.310039   -1.126932   -2.575507
C       2.053103   -0.688769   -1.359246
C       3.078972   -0.465694   -0.297545
H       0.842756    2.091599   -0.114662
H      -0.721019    1.882968   -0.916552
H      -0.634904    1.938984    0.854732
H       0.634433   -0.221004    0.877705
H      -0.924471   -0.424271    0.093314
H      -0.975336   -0.703837   -2.494199
H       1.009982   -1.528090   -4.235130
H       3.123189    0.579541    0.030461
H       2.898332   -1.081644    0.591658
H       4.052383   -0.736467   -0.708159
