21

C      -0.067242    1.572991   -0.445839
C       0.004471    0.159244    0.142457
C      -1.355240   -0.510038    0.198799
C      -1.890206   -1.313844   -0.962692
C      -1.538072   -2.002558    0.335398
C      -0.347635   -2.944500    0.416557
O       0.333364   -2.850142    1.668520
C      -0.755805   -4.326452    0.134308
C      -1.117171   -5.457730   -0.053450
H       0.921510    2.041317   -0.473241
H      -0.461843    1.555677   -1.467291
H      -0.723748    2.216057    0.150890
H       0.696466   -0.443780   -0.456337
H       0.432343    0.194858    1.151413
H      -2.098497    0.076930    0.735096
H      -2.935230   -1.229529   -1.238821
H      -1.223197   -1.475230   -1.805043
H      -2.375787   -2.328651    0.947296
H       0.402225   -2.644418   -0.323181
H      -0.245981   -3.226094    2.340726
H      -1.421363   -6.459128   -0.234031
