19

C       0.041938    1.512451   -0.195832
C       0.029978    0.013253    0.114471
O       0.587639   -0.270602    1.377647
C      -1.401618   -0.588000    0.035823
C      -1.340794   -2.056163    0.095579
N      -1.315067   -3.210747    0.110875
N      -2.178873   -0.085456    1.176036
C      -3.178466    0.948772    0.898264
C      -3.597114   -0.437789    1.229160
H       1.068320    1.881145   -0.129454
H      -0.334918    1.718456   -1.203802
H      -0.564008    2.069718    0.524489
H       0.650276   -0.510222   -0.621637
H      -0.109474   -0.083378    2.022584
H      -1.859839   -0.321057   -0.931326
H      -3.247968    1.740181    1.638177
H      -3.296277    1.276665   -0.132470
H      -3.996361   -1.049141    0.423389
H      -3.976414   -0.681511    2.216306
