10

N       0.065350    1.350825    0.141980
C       0.024415   -0.007197    0.034098
N      -1.075188   -0.720646    0.011728
O      -0.651469   -2.038707   -0.029738
N       0.686394   -2.142636   -0.044391
C       1.140739   -0.911911   -0.005250
C       2.516696   -0.573916   -0.011354
N       3.615960   -0.213011   -0.021143
H       0.896735    1.807632   -0.199156
H      -0.795648    1.835843   -0.059590
