21

C      -0.060073    1.655447   -0.046074
C       0.029047    0.140800   -0.003549
C       0.735111   -0.688268   -1.109468
C       1.892960   -0.012744   -1.865789
C       3.242542   -0.037078   -1.111024
C       3.238492    0.409853    0.334357
C       2.292198    0.147500    1.238431
C       1.028992   -0.606124    0.931925
O       1.230077   -1.607808   -0.101360
H       0.924203    2.124473   -0.117759
H      -0.659429    1.984916   -0.902302
H      -0.545332    2.039160    0.858295
H      -0.966897   -0.284992    0.153190
H       0.064876   -1.197979   -1.810165
H       2.041322   -0.518074   -2.826818
H       1.611194    1.019284   -2.106348
H       3.632909   -1.061451   -1.146470
H       3.957164    0.576104   -1.671143
H       4.119003    0.960472    0.658938
H       2.406470    0.513624    2.256124
H       0.605368   -1.051613    1.838429
