22

C       0.014018    1.613647   -0.119366
C       0.026208    0.117199    0.215620
C      -1.350688   -0.523536    0.118225
C      -1.946544   -0.873021   -1.251728
C      -1.110717   -2.174745   -1.430109
C      -2.402536   -2.941345   -1.676491
N      -2.873868   -1.945702   -0.621663
C      -1.485245   -2.057831    0.091112
C      -1.247695   -3.043259    1.197174
H       1.012758    2.050657   -0.023845
H      -0.329746    1.788799   -1.144427
H      -0.656207    2.162407    0.551243
H       0.725197   -0.402815   -0.451933
H       0.414167   -0.023843    1.232996
H      -2.073164   -0.042185    0.790520
H      -2.330542   -0.223667   -2.041266
H      -0.118523   -2.293305   -1.878999
H      -2.899875   -2.812985   -2.643882
H      -2.463331   -3.986975   -1.357253
H      -1.479216   -4.065678    0.880875
H      -0.200393   -3.018794    1.517315
H      -1.875224   -2.804700    2.062058
