20

C       0.165659    1.408179   -0.130578
N       0.398765   -0.029585   -0.135743
C       0.571142   -0.626569    0.949206
O       0.597065   -0.142564    2.254947
C       0.902269   -1.469205    2.781901
C      -0.370298   -2.233502    3.191606
C      -0.486665   -2.801030    1.742879
C       0.837099   -2.064004    1.339024
C       1.917781   -2.823065    0.606419
H       0.889836    1.890312   -0.796230
H      -0.829584    1.613003   -0.541430
H       0.235789    1.869825    0.861296
H       1.779849   -1.446376    3.428798
H      -0.184813   -3.004321    3.943745
H      -1.181663   -1.590244    3.537324
H      -0.383106   -3.887762    1.697807
H      -1.370567   -2.512932    1.171065
H       1.606115   -3.015069   -0.425558
H       2.851297   -2.252969    0.569079
H       2.120081   -3.786765    1.085200
