20

C      -0.067807    1.526788    0.057992
C      -0.001456   -0.006587    0.004779
C       0.721563   -0.499239   -1.217719
C       0.145393   -0.345381   -2.642815
C       0.887721   -1.639117   -2.920932
C       2.179180   -1.636096   -2.166284
C       2.260434   -0.349782   -1.373088
O       2.840298    0.818833   -1.896646
N       0.900300   -2.040350   -1.475531
H       0.932836    1.967176    0.015964
H      -0.640367    1.927691   -0.785276
H      -0.552412    1.863752    0.978682
H       0.510746   -0.392573    0.894995
H      -1.013153   -0.430519    0.022276
H      -0.936084   -0.507687   -2.644828
H       0.373828    0.559385   -3.218569
H       0.690237   -2.368700   -3.698346
H       2.962475   -2.360638   -2.358664
H       2.743887   -0.523980   -0.407339
H       2.548304    0.917273   -2.808530
