16

O      -0.480435    0.681904    0.730571
C       0.161975    1.052532   -0.221092
C       1.317583    2.013434   -0.154397
C       1.218593    3.347358   -0.976664
C       1.496271    4.155244    0.330521
C       1.528707    2.825258    1.153651
N       0.310628    3.277267    1.821173
C       0.183066    4.446937    1.089444
O      -0.669386    5.290706    1.046596
H      -0.076325    0.688106   -1.246579
H       2.219207    1.458893   -0.442425
H       1.999035    3.446418   -1.731768
H       0.254093    3.557960   -1.444856
H       2.286732    4.901694    0.325153
H       2.339180    2.529716    1.819694
H      -0.418049    2.702215    2.222389
