22

C      -0.021323    1.719950    0.223929
C       0.004065    0.201872    0.128571
O       0.518101   -0.147701   -1.155677
C       0.195911   -1.489086   -1.463859
C       0.760149   -2.442565   -0.426539
C       2.170313   -2.261870   -0.003129
N       1.074386   -1.933383    0.912984
C       0.804815   -0.512078    1.243299
C       2.098313    0.193291    1.658004
H       0.976932    2.139705    0.075810
H      -0.679683    2.129473   -0.546743
H      -0.391876    2.040940    1.202374
H      -1.034081   -0.168390    0.186460
H      -0.899380   -1.607638   -1.525063
H       0.611497   -1.700497   -2.455035
H       0.323853   -3.440882   -0.439814
H       2.779019   -3.113751    0.290067
H       2.714902   -1.451938   -0.481053
H       0.150163   -0.539681    2.125304
H       2.738159    0.416341    0.799522
H       1.882660    1.134090    2.171083
H       2.659182   -0.445823    2.345780
