17

C       0.141856    1.422719   -0.272699
N      -0.156032    0.025866    0.063932
C       0.550450   -0.477598    1.172849
C       2.030800   -0.878999    1.066764
N       3.077144   -0.273931    1.841162
C       1.040837   -1.886541    1.543307
O       0.769499   -1.641161    2.949953
C       0.192471   -0.403545    2.643565
O      -0.414171    0.305973    3.377320
H       1.207235    1.516611   -0.501523
H      -0.423904    1.700014   -1.166273
H      -0.097703    2.133512    0.531043
H      -1.154772   -0.104528    0.183065
H       2.293537   -0.995938    0.017668
H       2.858187   -0.341062    2.831735
H       3.940706   -0.791555    1.703693
H       0.769199   -2.856295    1.149481
