20

C       0.553507    1.887736   -0.747142
O       0.334412    0.624005   -0.146337
C       0.653740   -0.470265   -0.949827
C       0.802248   -1.809547   -0.179808
C      -0.007011   -2.546708   -1.295101
C      -1.092726   -3.536061   -0.891837
C      -0.429001   -1.172310   -1.789860
N      -1.427769   -0.871700   -2.505236
O      -1.557573    0.520276   -2.685811
H       1.606680    2.006993   -1.045468
H      -0.086390    2.034581   -1.624068
H       0.315260    2.640272    0.008286
H       1.537482   -0.257649   -1.573664
H       1.816538   -2.153994    0.027388
H       0.235081   -1.755488    0.753073
H       0.674514   -3.014240   -2.017104
H      -1.780566   -3.085340   -0.169679
H      -1.678308   -3.846325   -1.762109
H      -0.654905   -4.430794   -0.436973
H      -2.350824    0.580390   -3.228592
