23

O       0.034508    1.431999    0.300714
C       0.010190    0.017891    0.432315
C      -1.222430   -0.501219   -0.299888
C      -1.348227   -2.008110   -0.239447
C      -1.980363   -2.683203    0.962584
C      -2.684779   -2.677625   -0.365452
C      -4.058181   -2.046282   -0.646481
C      -4.535282   -3.432969   -1.172116
C      -3.056989   -3.923321   -1.183195
H       0.807000    1.763832    0.767047
H       0.916764   -0.438089    0.000764
H      -0.033679   -0.286534    1.490126
H      -2.109989   -0.029975    0.138425
H      -1.173192   -0.161893   -1.342396
H      -0.517527   -2.547805   -0.692676
H      -1.554031   -3.616260    1.318727
H      -2.376459   -2.045442    1.748588
H      -4.599215   -1.631590    0.208436
H      -4.023717   -1.286100   -1.433934
H      -5.143781   -3.967162   -0.438395
H      -5.061861   -3.439755   -2.128805
H      -2.618050   -3.918493   -2.186583
H      -2.856031   -4.895099   -0.723126
