23

C       0.065111    1.371584    0.199340
O       0.036941   -0.013288   -0.039179
C      -1.257545   -0.564530    0.069651
C      -1.173151   -2.062585   -0.210790
C      -2.513798   -2.740199   -0.143068
C      -3.140686   -3.190471    1.151803
C      -2.866769   -4.214841    0.083664
C      -3.955994   -4.148682   -0.991729
C      -3.608978   -2.640819   -1.221362
H       1.101459    1.702632    0.094411
H      -0.558662    1.925349   -0.521166
H      -0.285785    1.621249    1.213915
H      -1.669749   -0.388546    1.078264
H      -1.943195   -0.076946   -0.645669
H      -0.722744   -2.204000   -1.201479
H      -0.486017   -2.513800    0.514935
H      -2.468364   -3.218812    2.004171
H      -4.164642   -2.918800    1.402498
H      -2.201593   -5.052486    0.260210
H      -3.735731   -4.760293   -1.869454
H      -4.973512   -4.377087   -0.656632
H      -4.406636   -1.913250   -1.036730
H      -3.201571   -2.460347   -2.219903
