21

C      -0.047034    1.647965    0.083165
C      -0.051219    0.126708   -0.008190
C       1.124649   -0.481282   -0.823313
O       1.783548   -0.901318    0.387704
C       0.620242   -0.590596    1.181067
O      -1.329307   -0.418152   -0.262642
C      -1.940844   -0.070042   -1.497212
C      -3.250019   -0.843319   -1.553293
O      -4.097871   -0.500501   -0.475944
H       0.939398    1.996816    0.401937
H      -0.268543    2.116393   -0.880427
H      -0.789112    1.987903    0.812578
H       0.823764   -1.333785   -1.446587
H       1.742177    0.207524   -1.410802
H       0.866779    0.017253    2.058711
H       0.072438   -1.489440    1.489849
H      -2.148466    1.007607   -1.544456
H      -1.295636   -0.339773   -2.348070
H      -3.784166   -0.597423   -2.476930
H      -3.027921   -1.922224   -1.565916
H      -3.559371   -0.587584    0.319262
