18

C       0.470597   -2.394541   -1.348008
C       0.102998   -1.668168   -0.052557
O       0.925434   -0.517678    0.150571
C      -1.367598   -1.296707   -0.029961
C      -2.386307   -2.180128    0.610521
N      -2.070270   -0.877529    1.178638
C      -1.359174   -0.836506    2.450200
H       1.542275   -2.608985   -1.367398
H      -0.080390   -3.335458   -1.443706
H       0.229936   -1.775723   -2.221301
H       0.335365   -2.318742    0.796252
H       0.714458    0.119029   -0.541845
H      -1.671845   -0.728825   -0.913127
H      -3.377933   -2.296019    0.180323
H      -2.011741   -3.064316    1.128009
H      -0.738547   -1.722431    2.655509
H      -0.710187    0.042603    2.470837
H      -2.095122   -0.750592    3.255885
