23

C      -0.010304    1.662581    0.071603
C      -0.104542    0.138782   -0.069329
C       0.704208   -0.460632   -1.232759
C       0.294268    0.110632   -2.588230
C       2.245134   -0.446683   -0.927929
C       2.115162   -1.916838   -0.512187
O       2.768046   -2.649042    0.176161
C       0.740199   -2.043533   -1.175793
C      -0.337224   -2.886818   -0.508620
H       1.029072    1.997378    0.158113
H      -0.455209    2.180244   -0.783300
H      -0.539376    1.997759    0.968837
H       0.230645   -0.321927    0.869183
H      -1.157812   -0.147044   -0.185039
H       0.480399    1.187244   -2.650330
H       0.855515   -0.366770   -3.398641
H      -0.772771   -0.053239   -2.780171
H       2.859499   -0.335617   -1.828089
H       2.617408    0.241948   -0.165266
H       0.911366   -2.409954   -2.198276
H      -0.532644   -2.562619    0.516896
H      -1.279635   -2.847480   -1.064453
H      -0.014944   -3.931558   -0.465964
