17

N      -0.078050    1.270345    0.189433
C       0.013269    0.022968   -0.010058
O       1.214516   -0.587484   -0.221746
C       1.213774   -1.901515   -0.798531
C       0.104136   -2.760901   -0.245409
C      -0.140252   -2.700371    1.288089
C      -1.428635   -1.966236    0.944816
C      -1.215874   -0.820283    0.019938
N      -1.269176   -2.189946   -0.543294
H       0.847719    1.701209    0.141394
H       1.118341   -1.818835   -1.889684
H       2.195929   -2.322923   -0.566589
H       0.174195   -3.771836   -0.651332
H      -0.323898   -3.688479    1.712637
H       0.590812   -2.172844    1.905890
H      -2.386003   -2.100937    1.437691
H      -2.104458   -0.243335   -0.208667
