23

C      -1.282926    0.577136   -1.306684
C      -0.110367   -0.301500   -0.897468
C       1.304432    0.080260   -1.345048
O       1.735264    0.710269   -2.270865
C       1.922012   -0.429272   -0.038640
C       3.118496    0.300427    0.553240
C       0.466666   -0.343146    0.574502
C       0.228468    0.964665    1.332753
C       0.037596   -1.545519    1.410977
H      -1.126155    1.621690   -1.024248
H      -1.409724    0.548076   -2.393067
H      -2.217874    0.236624   -0.849698
H      -0.292639   -1.336899   -1.217045
H       2.166328   -1.491488   -0.177956
H       2.919334    1.367360    0.685256
H       3.402003   -0.116681    1.525123
H       3.979505    0.209255   -0.115716
H       0.529104    1.842714    0.751960
H      -0.831014    1.082036    1.583319
H       0.794279    0.979852    2.270137
H       0.597492   -1.593908    2.352186
H      -1.027302   -1.491776    1.665545
H       0.205879   -2.484851    0.873050
