16

C       0.009171    1.556776   -0.026548
C       0.024756    0.056445   -0.024486
C      -1.116784   -0.694950   -0.066075
N      -2.381482   -0.163507   -0.140756
N      -1.136364   -2.091652   -0.080953
N      -0.042812   -2.729539   -0.055232
N       1.103975   -2.043606   -0.011955
C       1.285843   -0.645117    0.016750
N       2.432697   -0.070428    0.070522
H       1.019756    1.932347   -0.188943
H      -0.648734    1.944718   -0.813353
H      -0.347681    1.962084    0.930472
H      -2.520616    0.764496    0.223707
H      -3.120621   -0.820212    0.058751
H       1.916106   -2.644024    0.010969
H       3.199288   -0.742856    0.085159
