13

C       0.019009    1.361542    0.091859
O       0.064940   -0.069242   -0.005505
C       0.607813   -0.587520   -1.098045
N       1.071127    0.187495   -2.025960
O       1.631277   -0.393549   -3.153500
N       1.717286   -1.737421   -3.331813
C       1.257143   -2.512778   -2.410263
C       0.638846   -2.065688   -1.165282
O       0.207861   -2.804034   -0.303758
H       1.028216    1.781294    0.062647
H      -0.564945    1.784110   -0.730321
H      -0.457138    1.569070    1.049231
H       1.349329   -3.577845   -2.600135
