21

C       0.037577    1.306711   -0.226747
O      -0.049582    0.020415    0.341951
C      -1.301065   -0.589844    0.148983
C      -1.630948   -1.183084   -1.271159
C      -1.730860   -2.558199   -0.606324
O      -2.703411   -3.499594   -0.897043
C      -0.435842   -2.904095    0.072568
C      -1.416490   -1.979187    0.771320
C      -1.998076   -2.273894    2.123263
H       1.034538    1.695250   -0.004678
H      -0.098833    1.286683   -1.318678
H      -0.713235    1.991255    0.199244
H      -2.104738    0.079434    0.492935
H      -2.589407   -0.830303   -1.658647
H      -0.857845   -1.063535   -2.038016
H      -2.355931   -4.098793   -1.566636
H      -0.408198   -3.904103    0.495128
H       0.517178   -2.531084   -0.292394
H      -1.297833   -2.012194    2.924794
H      -2.922895   -1.709530    2.289125
H      -2.237011   -3.337556    2.219957
