24

C      -3.020368    1.450020   -0.665300
C      -2.982195   -0.080037   -0.602100
C      -1.745910   -0.599288    0.142363
C      -1.518213   -2.106266    0.157227
C      -2.620711   -3.057362   -0.133171
N      -1.516736   -2.877552   -1.099848
C      -0.421546   -2.589757    1.111911
C       0.970566   -2.087274    0.731960
O      -0.746379   -2.285089    2.467495
H      -3.915233    1.804105   -1.185979
H      -3.024963    1.885970    0.339763
H      -2.146767    1.847338   -1.193702
H      -3.889833   -0.444587   -0.108082
H      -3.006059   -0.479173   -1.625243
H      -0.854661   -0.117472   -0.284104
H      -1.805382   -0.260751    1.184944
H      -2.641733   -4.023891    0.363519
H      -3.599480   -2.667268   -0.392900
H      -1.833215   -2.295447   -1.871905
H      -0.417924   -3.683657    1.054030
H       1.043700   -0.996358    0.822017
H       1.723834   -2.530894    1.389076
H       1.201850   -2.358619   -0.301679
H      -0.411064   -1.404718    2.663232
