18

O      -0.047644    1.405341    0.013586
C      -0.003538    0.014648    0.033249
C       0.452535   -0.765683    1.286146
C      -0.524271   -1.875798    0.828398
C      -1.332217   -0.818776    0.008830
C      -0.860865   -1.530096   -1.268910
C       0.467931   -0.710608   -1.302857
C       1.169307   -2.040456   -0.993642
N      -0.122876   -2.597840   -0.460139
H       0.848045    1.736753   -0.120142
H       1.510391   -0.994320    1.447677
H       0.046477   -0.280460    2.179769
H      -0.946756   -2.553047    1.569755
H      -2.314727   -0.422541    0.253412
H      -1.448071   -1.842272   -2.133071
H       0.785249   -0.045414   -2.109710
H       1.429874   -2.590298   -1.903970
H       2.025261   -2.067116   -0.312905
