18

C       0.108963    1.474533    0.476833
C      -0.036815   -0.029860    0.237565
C      -1.465308   -0.434429   -0.156086
C      -1.578098   -1.919621   -0.405528
O      -1.665245   -2.784384    0.719521
C      -2.790533   -2.744985   -0.167142
C      -4.046313   -2.160079    0.391000
O      -5.138537   -2.393896   -0.060626
H       1.135124    1.733558    0.753980
H      -0.148775    2.046286   -0.421577
H      -0.549614    1.812678    1.284276
H       0.658258   -0.347774   -0.550562
H       0.249567   -0.581964    1.140516
H      -2.163824   -0.129885    0.629545
H      -1.763068    0.095283   -1.070826
H      -0.917102   -2.296597   -1.190367
H      -2.943445   -3.629194   -0.784782
H      -3.896172   -1.499298    1.271403
