24

C      -2.201560    0.552794   -2.839062
C      -1.485452   -0.517431   -2.010266
C      -2.393166   -1.707222   -1.659174
C      -1.744574   -2.725601   -0.734796
C      -0.471053   -3.387152   -1.261649
O       0.719865   -2.715920   -0.860437
N      -1.726129   -2.360892    0.696123
C      -2.539771   -3.506858    0.264361
C      -4.034990   -3.416728    0.459896
H      -1.534703    1.387092   -3.077593
H      -2.571524    0.140479   -3.784392
H      -3.061894    0.957760   -2.295404
H      -0.608985   -0.868126   -2.573957
H      -1.113405   -0.074830   -1.077822
H      -3.299732   -1.319735   -1.185691
H      -2.710448   -2.209791   -2.583735
H      -0.369345   -4.397513   -0.853817
H      -0.523993   -3.480636   -2.357088
H       0.681813   -1.814921   -1.196221
H      -0.842733   -2.659723    1.104028
H      -2.137496   -4.496939    0.481563
H      -4.401833   -2.399556    0.310239
H      -4.562781   -4.084944   -0.229592
H      -4.298167   -3.713884    1.480950
