16

N      -0.318426    1.217023   -0.234209
C      -0.067658    0.082226    0.250417
O       1.031172   -0.657378   -0.046645
C       1.257815   -1.814438    0.772219
C       0.031864   -2.711264    0.711432
C      -1.191353   -1.865113    1.099687
O      -0.905656   -0.457565    1.173982
C      -2.397463   -2.068344    0.179526
O      -2.576091   -3.061351   -0.473460
H       0.457086    1.518016   -0.822159
H       2.142344   -2.298182    0.355364
H       1.479629   -1.500360    1.799370
H      -0.097461   -3.102159   -0.301230
H       0.141862   -3.567343    1.381883
H      -1.532516   -2.111884    2.112771
H      -3.103376   -1.211552    0.179611
