18

C      -0.063759    1.515122   -0.046320
C      -0.048007   -0.022988    0.033523
C       0.707976   -0.512325    1.283172
C      -1.435017   -0.580429   -0.011096
N      -1.956895   -1.370074   -0.904785
C      -3.251590   -1.577425   -0.471619
O      -4.105634   -2.357859   -1.159932
C      -3.468247   -0.898420    0.680845
O      -2.287289   -0.249748    0.981158
H       0.959322    1.903263   -0.051220
H      -0.565286    1.859937   -0.955112
H      -0.586550    1.943070    0.814275
H       0.448022   -0.419030   -0.858194
H       0.753457   -1.604633    1.316599
H       1.731991   -0.126637    1.279852
H       0.215422   -0.163987    2.195964
H      -3.620239   -2.681050   -1.928628
H      -4.294005   -0.768011    1.354425
