19

O      -0.010198    1.364001    0.091138
C      -0.023069   -0.035316    0.007749
C      -0.464196   -0.765722    1.255381
C      -1.333735   -0.755045    0.030378
C      -2.738728   -0.206204   -0.036942
C      -3.295174   -0.594853   -1.422935
C      -2.194878   -1.360793   -2.158700
C      -1.837512   -1.966603   -0.770093
C      -3.302535   -1.587607   -0.288294
H      -0.364080    1.709029   -0.735415
H       0.800697   -0.470790   -0.561127
H       0.059473   -1.676890    1.527755
H      -0.764284   -0.143980    2.092782
H      -3.175888    0.594684    0.544487
H      -4.141698   -0.068245   -1.845646
H      -2.619587   -2.110867   -2.831818
H      -1.407356   -0.801550   -2.678617
H      -1.355188   -2.938057   -0.681736
H      -4.093309   -2.140981    0.196222
