15

O      -0.124226    1.312156    0.008530
N       0.003247   -0.083275    0.003943
C      -1.138600   -0.661672    0.011431
C      -1.266982   -2.175281    0.008562
C      -2.772705   -2.375712    0.019726
C      -3.412256   -1.062597    0.028175
C      -2.480690   -0.085462    0.023444
N      -3.295968   -3.543877    0.020691
O      -4.695855   -3.483098    0.031749
H       0.794522    1.600516    0.002045
H      -0.804558   -2.620427   -0.877036
H      -0.790962   -2.624860    0.884672
H      -4.484556   -0.931152    0.036900
H      -2.663125    0.979377    0.027652
H      -4.940062   -4.414578    0.031176
