18

C       0.040576   -1.194583    0.004471
C       0.025207    0.008462    0.010507
C       0.001455    1.445288    0.004479
C      -0.674911    2.440692    0.991199
N      -0.048012    3.401274   -0.037007
C       1.174504    2.467307    0.041097
C      -0.560178    2.404781   -1.061911
C      -0.455938    2.503522   -2.535366
C      -1.820692    2.483876   -1.834267
H       0.054477   -2.256585    0.000650
H      -1.765809    2.468930    1.010377
H      -0.241385    2.529525    1.990346
H       1.732207    2.557931    0.976450
H       1.824482    2.520612   -0.834066
H      -0.128231    3.446614   -2.960388
H      -0.162362    1.622694   -3.097489
H      -2.428414    1.590078   -1.933379
H      -2.378381    3.414226   -1.804437
