11

O      -0.040642    0.007423    0.003391
C      -0.008184    1.191889    0.016595
O      -1.152117    1.986568   -0.033369
C      -0.710769    3.287020   -0.011497
N       0.531869    3.520225    0.040904
C       1.171555    2.191214    0.062091
C       2.033395    1.983116    1.215112
C       2.734456    1.796871    2.170751
H      -1.499830    4.028433   -0.045607
H       1.752457    2.064052   -0.861682
H       3.358955    1.633464    3.014449
