15

C      -0.219079    1.533033   -0.026421
C      -0.091972    0.047314   -0.062046
N      -0.231850   -0.677035   -1.112246
C       0.001458   -2.061722   -0.689182
C       1.166912   -2.632320   -1.507616
O       2.119739   -3.198933   -1.052217
C       0.249672   -2.026720    0.826264
O       0.437169   -2.917606    1.610075
N       0.191520   -0.661698    1.103656
H       0.707863    1.993482    0.332630
H      -0.437028    1.899089   -1.029478
H      -1.023589    1.838380    0.651599
H      -0.877387   -2.683725   -0.910570
H       1.045168   -2.444989   -2.595118
H       0.333796   -0.273661    2.022449
