18

C      -0.000878    1.056561    0.499738
O      -0.183809    0.019321   -0.446406
C      -1.381830   -0.666115   -0.276076
C      -1.495720   -2.008209   -0.958669
C      -1.415070   -1.924361    0.539965
C      -0.342168   -2.501385    1.474528
C      -1.534584   -2.868439    2.401538
O      -1.675375   -3.399960    3.468496
N      -2.426450   -2.329466    1.499137
H       0.961416    1.523930    0.280031
H      -0.792849    1.816362    0.419837
H       0.010088    0.677154    1.530897
H      -2.272983   -0.033036   -0.264244
H      -2.441046   -2.258503   -1.429160
H      -0.614765   -2.366305   -1.481438
H       0.201240   -3.365462    1.088391
H       0.359408   -1.783237    1.901147
H      -3.432972   -2.258291    1.506094
