18

N       0.293284    0.827550   -0.974175
C       0.042291    0.134344    0.061462
O       0.939311    0.014897    1.102818
C       1.670694   -1.211932    1.245909
C       0.819361   -2.475097    1.345013
O      -0.058821   -2.519333    2.448954
C      -0.995683   -1.438967    2.565817
C      -1.750743   -1.142316    1.290620
C      -1.285019   -0.480308    0.223914
H       1.244471    1.198424   -0.915675
H       2.369454   -1.323833    0.403390
H       2.250847   -1.076283    2.162411
H       0.282110   -2.639780    0.400782
H       1.502031   -3.321563    1.479850
H      -1.693763   -1.770128    3.338733
H      -0.490218   -0.537396    2.925474
H      -2.761537   -1.537408    1.228354
H      -1.921637   -0.336588   -0.643264
