20

C       0.044500    1.531311   -0.054369
C       0.046478    0.018161    0.003442
C       0.520406   -0.732938   -1.239643
C       1.729390   -1.633901   -1.079604
C       0.352933   -2.143992   -0.750560
N      -0.148550   -2.010469    0.629820
C       0.543553   -0.791268    1.250629
C      -0.757488   -0.499103    2.018389
C      -1.155055   -0.847768    0.579528
H       1.058517    1.911077   -0.221816
H      -0.577460    1.887307   -0.883544
H      -0.335145    1.987479    0.864355
H       0.214800   -0.390010   -2.221681
H       2.172092   -2.017162   -1.993942
H       2.450748   -1.446704   -0.292215
H      -0.093571   -2.944379   -1.327944
H       1.553112   -0.859349    1.660169
H      -1.028100   -1.235057    2.775901
H      -0.922002    0.523778    2.356656
H      -2.150446   -0.983700    0.149767
