14

N       0.033356    1.403909    0.164344
C       0.032901    0.014682    0.046949
C      -1.036721   -0.840080    0.004353
O      -0.636857   -2.196295   -0.031442
C       0.693283   -2.111700   -0.015131
C       1.193499   -0.842350    0.031134
N       2.574415   -0.867943    0.029431
C       2.867464   -2.147591   -0.015994
N       1.747356   -2.976186   -0.047273
H       0.860444    1.826365   -0.234951
H      -0.799554    1.849079   -0.195710
H      -2.101704   -0.689666    0.008599
H       3.862030   -2.567080   -0.028445
H       1.738761   -3.980933   -0.077741
