23

C      -0.024266    1.502026    0.067356
C       0.276343    0.015929   -0.033550
O       0.403449   -0.507451    1.274633
C       0.668074   -1.887147    1.310603
C       2.118384   -2.392963    0.979754
C       2.180412   -2.994764    2.386040
C       1.991355   -1.900738    3.399639
C       0.774444   -2.468311    2.718699
C      -0.367941   -3.099497    3.462155
H       0.784834    2.022253    0.588002
H      -0.133517    1.939110   -0.929799
H      -0.950791    1.668380    0.624255
H      -0.532413   -0.506694   -0.572797
H       1.202986   -0.150725   -0.606720
H      -0.078165   -2.429629    0.708990
H       2.136281   -3.127673    0.171582
H       2.855531   -1.610935    0.768686
H       2.615410   -3.952892    2.644018
H       2.104082   -2.198223    4.437671
H       2.322357   -0.888450    3.184016
H      -1.087055   -2.342425    3.797005
H      -0.909134   -3.817036    2.834197
H      -0.014548   -3.633781    4.350314
