18

C       0.064112    1.540532    0.089894
C       0.024487    0.042781    0.025682
C      -1.275418   -0.763515    0.260184
C      -0.342427   -1.801555    0.847253
N       0.727364   -0.802737    1.156143
C       0.927892   -1.817314    0.038656
C       0.803975   -0.752520   -1.042064
C       1.877254   -2.875910    0.106746
C       2.676380   -3.775072    0.126974
H       1.095913    1.905008    0.069708
H      -0.468245    1.974543   -0.764662
H      -0.408352    1.906011    1.007041
H      -1.888467   -0.307231    1.042581
H      -1.898790   -1.016212   -0.603678
H      -0.568598   -2.608180    1.535046
H       0.300921   -1.003560   -1.981363
H       1.777888   -0.300970   -1.246956
H       3.384430   -4.565706    0.155592
