18

C      -0.084521    1.573447   -0.088158
C       1.473270    1.550151    0.032209
C       2.111774    1.973484    1.324710
C       2.385104    0.915874    2.084378
C       1.895836   -0.370150    1.436745
C       0.616905   -0.899943    2.066290
C      -0.439986   -0.647028    1.298592
C      -0.020948    0.015673    0.016915
N       1.475780    0.052491    0.071704
H      -0.603929    2.071045    0.732730
H      -0.464632    1.953062   -1.038864
H       1.989360    1.963102   -0.843360
H       2.326833    3.007150    1.570019
H       2.859469    0.933211    3.058786
H       2.683832   -1.137237    1.412699
H       0.602498   -1.384540    3.035698
H      -1.469951   -0.891931    1.531156
H      -0.411264   -0.502210   -0.867928
