17

O       0.905259   -0.162358   -0.756578
C       0.449260    0.932720   -0.565605
C       1.241343    2.086269    0.038352
C       1.063383    3.353235   -0.801976
O      -0.041844    3.790566   -1.024488
C       2.327403    3.966879   -1.361698
C       2.969897    3.181179   -2.544963
O       2.705408    4.262251   -3.450262
C       2.150291    5.086685   -2.400462
H      -0.597169    1.194641   -0.824509
H       0.804656    2.296898    1.023528
H       2.283717    1.787215    0.164272
H       3.022543    4.173736   -0.543477
H       4.042120    2.978849   -2.434476
H       2.462221    2.254162   -2.840562
H       1.109248    5.361835   -2.593542
H       2.750639    5.986952   -2.227093
