20

C      -0.331202    1.455144    0.045953
C       0.000395   -0.030744    0.054358
C       0.639749   -0.608237   -1.218467
N       1.952218    0.062284   -1.356142
C       1.819121   -1.119104   -0.472113
C       1.265706   -0.601000    0.851636
C       2.198643    0.251297    1.699072
C       1.579045    1.063897    2.823558
O       3.393586    0.233424    1.514445
H       0.544441    2.046165   -0.233725
H      -1.121455    1.655788   -0.686580
H      -0.696142    1.797938    1.019086
H      -0.881891   -0.613132    0.335657
H       0.125894   -1.018170   -2.079481
H       2.373749   -0.260324   -2.226043
H       2.419565   -2.004368   -0.634302
H       0.921578   -1.420821    1.494628
H       0.775366    0.514584    3.324778
H       2.351975    1.342875    3.541487
H       1.136858    1.977254    2.411556
