19

C      -0.055628    1.555694   -0.067039
C       0.011098    0.050088    0.040561
C      -1.302012   -0.755188    0.300806
C      -0.536145   -1.768064    1.185119
C       0.276563   -2.800793    0.367255
C       1.370394   -1.728531    0.081920
C       0.706186   -0.808207    1.179159
C       0.909308   -0.701165   -0.955155
O       1.259402   -0.449331   -2.074616
H       0.944343    2.000118   -0.100694
H      -0.574846    1.847352   -0.986504
H      -0.595914    1.989725    0.780872
H      -1.982248   -0.147397    0.906063
H      -1.851898   -1.134558   -0.566633
H      -1.039757   -2.125439    2.083179
H       0.684909   -3.576932    1.020338
H      -0.205637   -3.280692   -0.490167
H       2.412904   -2.044772    0.044878
H       1.224121   -0.392275    2.038880
