19

O      -0.265966    1.406594    0.066133
C      -0.070951   -0.001381    0.056077
C       0.508564   -0.583970    1.377942
C      -0.688961   -1.436781    1.787729
C      -1.930050   -0.435791    1.509006
C      -1.469889   -0.670924    0.021649
C      -1.699982   -1.333333   -1.363976
O      -0.802965   -2.435583   -0.925663
C      -1.213643   -2.071114    0.447990
H       0.599737    1.825735    0.047329
H       0.531042   -0.298718   -0.808849
H       1.412963   -1.178109    1.219156
H       0.728478    0.207863    2.100009
H      -0.629937   -2.009028    2.715225
H      -2.894006   -0.879129    1.757498
H      -1.840223    0.572111    1.915640
H      -2.710981   -1.714410   -1.545197
H      -1.309309   -0.825715   -2.249511
H      -2.122595   -2.645451    0.664814
