15

C       0.007442    1.439776    0.007998
N      -0.070858   -0.005140    0.002838
C      -1.233963   -0.695091    0.009981
N      -2.379798    0.006011    0.020057
C      -3.497731   -0.721398    0.026257
C      -3.516198   -2.108430    0.022917
C      -2.253359   -2.697714    0.012392
F      -2.163876   -4.021603    0.008662
N      -1.122439   -2.044077    0.005902
H       1.060165    1.728702   -0.001941
H      -0.486456    1.870611   -0.869207
H      -0.467950    1.863976    0.898668
H       0.767253   -0.560053   -0.002685
H      -4.430467   -0.161603    0.034420
H      -4.424490   -2.693147    0.028066
