14

O       0.127986    1.403579   -0.038013
C       0.074764   -0.008403    0.015475
C      -1.366379   -0.540409   -0.113581
C      -1.421225   -2.029021   -0.072526
N      -1.509665   -2.810028   -1.146455
N      -1.485118   -4.013702   -0.589970
N      -1.389673   -4.014846    0.730447
N      -1.345528   -2.755616    1.077046
H      -0.270795    1.747926    0.767521
H       0.672687   -0.366779   -0.828535
H       0.530693   -0.403537    0.934904
H      -1.968629   -0.145362    0.712353
H      -1.797776   -0.181995   -1.051176
H      -1.547212   -4.866304   -1.126255
