20

C      -0.838089    1.183389   -0.062710
C       0.051930   -0.048464   -0.002837
N       1.210168   -0.081489   -0.951020
C       2.187946   -0.453930    0.121373
C       2.658319   -1.908130    0.113978
C       3.365036    0.526621    0.262599
O       4.031833    0.336764    1.495133
C       1.077767   -0.143936    1.133938
O       1.071231    0.081824    2.312977
H      -0.234583    2.094413   -0.034955
H      -1.427056    1.191552   -0.984764
H      -1.527136    1.192268    0.787580
H      -0.560972   -0.962526   -0.034222
H       1.122228   -0.788169   -1.673452
H       3.208290   -2.111856   -0.812526
H       3.333852   -2.084252    0.954109
H       1.822056   -2.611528    0.178435
H       4.100624    0.350961   -0.530941
H       2.988581    1.553060    0.144143
H       3.373847    0.452103    2.193457
