20

C      -0.169068    1.588614    0.037834
C      -0.014306    0.071597    0.058053
C       0.638569   -0.588870   -1.225886
N       1.713473   -1.053762   -0.338151
C       1.183721   -0.517225    0.796274
C       1.983035   -0.855854    1.862947
C       3.038546   -1.640601    1.291924
C       2.856314   -1.765510   -0.080607
C       3.661209   -2.469719   -1.120855
H       0.769548    2.074906   -0.246254
H      -0.946937    1.896787   -0.669463
H      -0.451354    1.960152    1.027959
H      -0.968962   -0.400216    0.315837
H       0.060401   -1.394159   -1.689501
H       0.967912    0.117783   -1.994668
H       1.861743   -0.600210    2.903677
H       3.867433   -2.071184    1.836012
H       3.082698   -3.243360   -1.641597
H       4.044715   -1.783242   -1.886339
H       4.520787   -2.958664   -0.656070
