17

C       0.079646    1.547324    0.198687
C      -0.004500    0.045780   -0.000207
O       0.659653   -0.575536    1.113166
C       0.693143   -1.920838    1.119598
N       0.172964   -2.620290    0.203066
C       1.435496   -2.381497    2.372380
C       1.540024   -3.826110    2.496728
C       1.617237   -5.021987    2.583721
H       1.121140    1.879511    0.235309
H      -0.416459    2.059767   -0.630899
H      -0.409226    1.846718    1.130228
H      -1.039921   -0.308053   -0.038942
H       0.480419   -0.275584   -0.927755
H       0.308916   -3.611094    0.398138
H       2.431635   -1.921961    2.362879
H       0.923770   -1.955207    3.244142
H       1.691786   -6.077775    2.671419
