15

O       0.066685   -0.016915    0.143209
C      -0.004182    1.186117    0.026910
C      -1.335363    1.919612   -0.099306
C      -1.306492    3.036877   -1.115310
C      -0.182917    3.658317   -1.470223
C       1.123812    3.310132   -0.853821
N       1.168554    3.350260    0.618970
C       1.222165    2.036150   -0.061473
H      -2.105838    1.177938   -0.324778
H      -1.574579    2.337580    0.890109
H      -2.258196    3.334043   -1.546045
H      -0.195518    4.458765   -2.203358
H       2.018153    3.615236   -1.390161
H       2.106222    3.588338    0.934116
H       2.154688    1.480451   -0.067606
