16

C      -0.093265    1.543585    0.019640
C       0.005974    0.047187    0.018204
C      -0.865583   -0.894944    0.805673
C       0.622721   -0.900492    1.042060
C       1.367501   -1.637206   -0.117687
O       0.416668   -2.121143   -1.081576
C       0.761743   -0.736662   -1.108558
C       2.657733   -2.241324   -0.053037
N       3.712512   -2.706793    0.041479
H       0.872349    2.011490   -0.203862
H      -0.815529    1.894411   -0.726991
H      -0.420998    1.909787    0.997226
H      -1.435104   -0.417248    1.596982
H      -1.351081   -1.740024    0.334581
H       1.095046   -0.670474    1.987166
H       1.166091   -0.333559   -2.029771
