17

C       0.019082    1.498005    0.068255
C      -0.024326   -0.000353   -0.013031
C      -1.144827   -0.728001    0.070797
C      -1.141844   -2.231518    0.009271
C       0.072799   -2.733734   -0.770643
N       1.268039   -2.041064   -0.311637
C       1.305592   -0.679199   -0.132408
O       2.358104   -0.068642   -0.035428
H       0.664537    1.819673    0.891067
H       0.451315    1.927223   -0.842008
H      -0.981371    1.913994    0.211702
H      -2.100445   -0.230937    0.223904
H      -1.131917   -2.641185    1.030094
H      -2.058146   -2.600779   -0.463299
H       0.211465   -3.808440   -0.621817
H      -0.093111   -2.568711   -1.847325
H       2.169808   -2.445093   -0.519407
