20

C      -0.010742    1.610859   -0.286256
C       0.001712    0.106716   -0.081938
C       1.294034   -0.630896   -0.338457
C       0.793854   -0.456544    1.075301
C      -1.291919   -0.634169   -0.432834
C      -2.506539   -0.228165    0.441125
O      -3.638915   -1.027702    0.185469
C      -1.648852   -0.462942   -1.847530
N      -1.975685   -0.307283   -2.945931
H       0.973306    2.033615   -0.064803
H      -0.258050    1.867125   -1.322155
H      -0.735142    2.108870    0.367004
H       1.245406   -1.620979   -0.779062
H       2.150741   -0.046961   -0.656103
H       1.310433    0.244585    1.721654
H       0.409765   -1.330789    1.590769
H      -1.139408   -1.707988   -0.271233
H      -2.238438   -0.389956    1.488978
H      -2.722254    0.840511    0.307537
H      -3.950537   -0.831240   -0.705497
