21

C      -0.021664    1.486457    0.001230
C      -0.041810    0.030528    0.020145
C      -0.048847   -1.175356    0.031524
C      -0.063195   -2.611886    0.037684
C      -0.441212   -3.451321    1.249842
C      -1.530404   -2.749339    2.064584
C      -2.441026   -2.739942    0.792882
C      -1.329521   -3.455611    0.007369
C      -1.559517   -4.509262   -1.037199
H       1.004873    1.869828   -0.017343
H      -0.538921    1.885864   -0.878689
H      -0.511216    1.903209    0.888622
H       0.738923   -3.067888   -0.539625
H       0.238110   -4.214694    1.613527
H      -1.935067   -3.377492    2.860929
H      -1.259916   -1.774860    2.480572
H      -3.329677   -3.364515    0.914100
H      -2.742125   -1.761095    0.409374
H      -1.996154   -4.077940   -1.946316
H      -0.623457   -5.001258   -1.321871
H      -2.247151   -5.282523   -0.674839
