16

O       0.020717    1.412211    0.007108
C      -0.021539    0.001389    0.002358
C      -1.436300   -0.470433    0.012099
C      -2.537873    0.293440    0.022987
C      -3.754421   -0.543619    0.029466
O      -4.904640   -0.169784    0.040752
C      -3.290754   -2.012731    0.022873
C      -1.752010   -1.952395    0.010434
H       0.941362    1.688717   -0.000985
H       0.482654   -0.422011   -0.885246
H       0.496979   -0.428371    0.878581
H      -2.561997    1.373860    0.026507
H      -3.692079   -2.522581    0.903224
H      -3.706494   -2.519137   -0.852746
H      -1.317656   -2.441507   -0.870494
H      -1.303325   -2.446468    0.881349
