17

C       0.208701    1.465052   -0.137809
O       1.267790    0.508675    0.053021
C      -0.059613    0.038498    0.015058
C      -0.725079   -0.779894    1.113690
O      -1.212853   -1.709718    0.114725
C      -0.568405   -1.015767   -0.963164
C      -1.365453   -0.714554   -2.242486
O      -0.323943   -1.278609   -3.063612
C       0.386613   -1.768874   -1.904919
H       0.035758    2.140574    0.698626
H       0.170209    1.922361   -1.125191
H      -0.027190   -1.249494    1.816242
H      -1.542566   -0.301212    1.664253
H      -2.302480   -1.284302   -2.296253
H      -1.561380    0.338553   -2.477676
H       1.433330   -1.447414   -1.889267
H       0.320396   -2.859002   -1.799001
