15

O       0.041355    1.419196   -0.128318
C       0.021909    0.026725    0.018417
C       0.234791   -0.831780   -1.252882
O      -1.068702   -1.440521   -1.100788
C      -1.369161   -0.617841    0.049537
C      -1.409064   -1.474295    1.314878
O      -2.315101   -2.119053    1.747103
O      -0.178621   -1.445753    1.907861
C       0.696203   -0.477941    1.313038
H       0.953210    1.710420   -0.241951
H       0.299366   -0.234364   -2.169259
H       1.041669   -1.573219   -1.227368
H      -2.254886    0.006955   -0.080314
H       1.665672   -0.956448    1.145607
H       0.819152    0.359037    2.008501
