22

C      -0.435261    1.419702   -0.007732
C      -0.035477   -0.061835   -0.018942
C       0.943913   -0.362954   -1.165759
O       0.417084   -0.089556   -2.453790
C       0.580821   -0.517253    1.314740
C      -0.398739   -0.492127    2.495200
N       0.194086   -0.993565    3.725347
C       0.448939   -0.205608    4.804243
O       0.189722    0.976316    4.888741
H       0.436229    2.061129    0.173885
H      -0.881751    1.710147   -0.964170
H      -1.174489    1.641218    0.766539
H      -0.937634   -0.660664   -0.209349
H       1.887468    0.182495   -0.996856
H       1.185960   -1.431590   -1.167208
H       0.398156    0.864157   -2.573069
H       0.964317   -1.541003    1.199135
H       1.446539    0.110886    1.561947
H      -0.723032    0.525681    2.718404
H      -1.291573   -1.082996    2.252391
H       0.484620   -1.957752    3.766894
H       0.927528   -0.778275    5.623819
