17

O       0.082966    1.208915   -0.396643
C      -0.100804   -0.142749   -0.044095
C      -1.587559   -0.505019    0.144411
C      -2.372904   -0.449971   -1.216540
C      -2.344154   -1.984483   -1.236536
O      -2.605954   -2.808402   -2.061384
C      -1.804688   -2.059946    0.202158
C      -2.154236    0.272208    1.232448
C      -2.585690    0.951277    2.127715
H      -0.305249    1.742678    0.307322
H       0.309948   -0.734804   -0.869635
H       0.451047   -0.411012    0.869885
H      -3.392084   -0.064953   -1.119333
H      -1.872248    0.073893   -2.034027
H      -0.913688   -2.674356    0.360727
H      -2.576205   -2.365960    0.914095
H      -2.987807    1.531933    2.921219
