17

C      -0.171154   -1.248615   -0.209181
C      -0.088116   -0.057345   -0.072832
C       0.003254    1.389590    0.051399
O      -0.524008    1.863317    1.311216
C       0.520384    2.679846    1.849083
C       1.602208    1.770421    2.456569
C       2.287338    1.257688    1.152431
C       1.442924    1.984689    0.087611
O       1.152224    3.242066    0.713995
H      -0.248527   -2.301684   -0.324842
H      -0.565864    1.860869   -0.760356
H       0.085205    3.452906    2.481315
H       2.288666    2.342670    3.085417
H       1.155763    0.974013    3.053657
H       3.328119    1.580664    1.087996
H       2.251021    0.173249    1.042739
H       1.897053    2.137154   -0.889414
