18

C       0.005778    1.500428    0.315925
O       1.298728    1.996488   -0.054514
C       2.008399    1.034377   -0.817140
C       1.952502    1.180458   -2.348617
O       2.100865   -0.148949   -2.851773
C       1.515380   -1.080072   -1.937362
C       1.283473   -0.288351   -0.669453
N       1.088110   -0.742443    0.706257
C       0.010506    0.017365    0.015878
H      -0.151346    1.733551    1.374737
H      -0.782973    1.993290   -0.271252
H       3.041588    1.017133   -0.454440
H       0.988089    1.622349   -2.645458
H       2.758214    1.783817   -2.772453
H       0.584702   -1.497202   -2.348604
H       2.223296   -1.905615   -1.790215
H       0.839478   -1.730797    0.711414
H      -0.915788   -0.487790   -0.237087
