21

C      -0.032303    1.617247   -0.054480
C       0.014009    0.078187   -0.007619
C       0.832718   -0.479797   -1.151151
C       1.999152   -0.979353   -0.749381
C       2.172496   -0.887068    0.746564
C       0.744460   -0.534175    1.239032
C       0.674658    0.303809    2.494919
C       1.693723    0.271942    3.552161
O       1.609731    1.377180    2.648739
H       0.968249    2.047307    0.041376
H      -0.457334    1.953816   -1.006010
H      -0.652492    2.027402    0.748637
H      -1.020659   -0.287183   -0.046545
H       0.504578   -0.402804   -2.182709
H       2.767562   -1.381946   -1.400368
H       2.544248   -1.817249    1.191197
H       2.889849   -0.098606    1.010885
H       0.231060   -1.476884    1.469119
H      -0.338496    0.570070    2.804323
H       1.412235    0.489619    4.581569
H       2.574524   -0.357124    3.436687
