17

C       1.043572    0.938405   -0.535348
C       0.041277   -0.039485    0.034696
C      -1.157730   -0.322092   -0.844890
O       0.593869   -1.210709    0.671588
C      -0.095031   -0.260017    1.493073
C       0.701152    0.484319    2.540085
N       2.023827    0.165599    2.565218
O       0.167096    1.287085    3.280304
H       1.877054    1.108957    0.146684
H       1.438730    0.555713   -1.482571
H       0.559027    1.898642   -0.739503
H      -0.832581   -0.686567   -1.825289
H      -1.803272   -1.078846   -0.393571
H      -1.742565    0.589920   -1.002481
H      -1.067462   -0.577947    1.867230
H       2.353750   -0.605174    2.007794
H       2.598679    0.545123    3.299006
