17

C       0.104917    1.457862   -0.119707
C      -0.047891   -0.049690    0.115516
C       0.635423   -0.886207   -0.991143
O       2.015052   -0.968269   -0.608582
C       2.040120   -1.094357    0.786883
C       0.730910   -0.493487    1.352943
O       0.330286   -1.814256    1.852406
C       1.470878   -2.419441    1.371537
O       1.770492   -3.564745    1.445800
H       1.157554    1.729363   -0.250660
H      -0.433129    1.764317   -1.021400
H      -0.292723    2.034045    0.721504
H      -1.103541   -0.317281    0.216165
H       0.197865   -1.892098   -1.053296
H       0.596482   -0.424185   -1.979618
H       3.013295   -0.787873    1.170422
H       0.769482    0.225443    2.171038
