19

C       0.141732    1.632949   -0.128571
C       0.063994    0.129985    0.025346
C      -1.333270   -0.462390    0.399584
C      -0.704661   -1.061107    1.671505
O      -1.160487   -1.555770    2.662334
C       0.705201   -0.674937    1.237486
C       1.287416   -1.697565    0.202632
C       0.847937   -0.761261   -0.961537
O       0.057302   -1.290800   -2.000393
H       1.179346    1.974987   -0.208301
H      -0.388173    1.957778   -1.031644
H      -0.313856    2.145645    0.725838
H      -2.105256    0.283440    0.611340
H      -1.734963   -1.190265   -0.309385
H       1.396159   -0.262541    1.973121
H       2.362353   -1.866616    0.289426
H       0.779690   -2.665652    0.200192
H       1.710833   -0.212114   -1.366287
H       0.614571   -1.834349   -2.566345
