19

C       0.016906    1.548887   -0.037147
C       1.477382    2.035599    0.019788
N       2.179732    1.644890    1.253997
C       1.873648    0.315435    1.599528
C       0.902216   -0.498694    1.062689
C      -0.061445    0.009398    0.028072
C       1.049702   -1.776739    1.684823
C       2.090985   -1.690737    2.576006
N       2.594793   -0.406395    2.515698
H      -0.530374    1.981998    0.810108
H      -0.460751    1.920435   -0.950376
H       2.033978    1.615553   -0.827747
H       1.529250    3.124982   -0.066826
H       1.948857    2.288962    2.005905
H      -1.088813   -0.301608    0.253217
H       0.168996   -0.412199   -0.961160
H       0.445414   -2.654066    1.506822
H       2.512328   -2.418641    3.249831
H       3.412179   -0.068606    2.992487
