20

C      -0.099239    1.548324   -0.183186
C       1.348871    1.973797    0.108293
N       2.535782    1.988399   -0.776702
C       2.183387    0.747206   -0.094825
C       1.268914   -0.256873   -0.822614
C      -0.003031    0.005462   -0.003834
C       0.307056   -0.435492    1.474867
C       1.781242   -0.446279    1.883058
C       2.735567    0.136122    1.146278
H      -0.785870    2.029033    0.520390
H      -0.443546    1.793959   -1.195675
H       1.506957    2.575222    0.997596
H       2.291389    1.914989   -1.762120
H       1.125889    0.000856   -1.878654
H       1.643542   -1.280480   -0.761720
H      -0.898074   -0.518812   -0.359339
H      -0.258884    0.195753    2.175675
H      -0.089328   -1.448476    1.623659
H       2.021323   -0.970948    2.804136
H       3.787085    0.143351    1.413695
