20

C      -0.036768    1.554609    0.050117
C      -0.038639    0.020523    0.008079
C      -1.477172   -0.512789    0.032403
C       0.742126   -0.517586   -1.230887
C       2.194732    0.002117   -1.325263
C       0.752138   -1.976176   -1.251441
C       0.794546   -3.184928   -1.260899
C       0.837685   -4.549123   -1.273938
N       0.874357   -5.710569   -1.284634
H       0.966559    1.970921    0.168038
H      -0.473750    1.974061   -0.864165
H      -0.638838    1.906703    0.893257
H       0.483548   -0.351555    0.899714
H      -2.039775   -0.159671   -0.840244
H      -1.506169   -1.605399    0.031362
H      -2.000754   -0.161944    0.926767
H       0.200507   -0.183522   -2.128962
H       2.749117   -0.233005   -0.411747
H       2.715058   -0.462316   -2.166338
H       2.208738    1.083738   -1.473080
