11

N      -0.154866    1.284466    0.122491
C      -0.030416    0.047497   -0.040538
O      -1.169429   -0.724572    0.050926
C      -1.036537   -2.054580    0.047412
N       0.099220   -2.698810    0.167752
O      -0.309579   -4.040462    0.105773
C      -1.634404   -4.019512   -0.031854
N      -2.155616   -2.835530   -0.076502
H       0.745600    1.745553    0.005198
H       0.865838   -0.532861   -0.265499
H      -2.139205   -4.972440   -0.093042
