27

C      -0.042269    1.560865   -0.083088
C      -0.025536    0.043336    0.119673
C      -1.405060   -0.597847   -0.060202
C      -1.387325   -2.107798    0.141175
O      -2.699037   -2.599901   -0.036736
C      -2.833087   -4.016840   -0.011296
C      -2.780058   -4.564074    1.418312
C      -4.157803   -4.348290   -0.702433
C      -4.205707   -3.909897   -2.167481
H       0.953946    1.993183    0.053002
H      -0.384084    1.821274   -1.090894
H      -0.717377    2.047375    0.629521
H       0.683557   -0.411267   -0.584959
H       0.355911   -0.186746    1.123436
H      -2.118379   -0.159715    0.648879
H      -1.793041   -0.382710   -1.063581
H      -0.701592   -2.582334   -0.582340
H      -1.004496   -2.344967    1.147384
H      -2.007801   -4.461606   -0.595801
H      -2.884822   -5.653842    1.416778
H      -1.832706   -4.323602    1.909183
H      -3.592407   -4.138844    2.016660
H      -4.326836   -5.429033   -0.624627
H      -4.964507   -3.862060   -0.139482
H      -5.178634   -4.133500   -2.615651
H      -4.027426   -2.835097   -2.250231
H      -3.440555   -4.424845   -2.759929
