17

O       0.005490   -0.056220    0.205948
C      -0.017587    1.144459    0.027891
C      -1.320619    1.929793   -0.068355
C      -1.197388    3.156530   -0.978394
C      -0.037666    4.069354   -0.518692
C       1.226138    3.261103   -0.291321
C       1.225719    1.942553   -0.064824
C       0.195798    5.165193   -1.457567
C       0.388087    6.054466   -2.242480
H      -2.108784    1.249831   -0.400806
H      -1.582736    2.247134    0.951760
H      -0.996609    2.839097   -2.007532
H      -2.130562    3.726386   -0.994861
H      -0.318297    4.515042    0.450641
H       2.160978    3.814301   -0.318894
H       2.150163    1.392658    0.082413
H       0.555549    6.845476   -2.931089
