13

C       0.075806    1.507607    0.043820
C       0.066555    0.014929   -0.019493
C      -0.027588   -0.799481   -1.118833
O      -0.138947   -0.597427   -2.456105
N       0.007391   -2.091748   -0.659850
C       0.121815   -2.016368    0.705269
N       0.159431   -0.776065    1.115552
H       0.999913    1.884574    0.495764
H      -0.006596    1.955525   -0.953778
H      -0.758223    1.889213    0.643070
H      -0.149966    0.351165   -2.617662
H      -0.042960   -2.915284   -1.235536
H       0.171347   -2.898442    1.325193
