20

N       0.012105    1.248235   -0.124206
C       0.071786   -0.100735   -0.015966
O       1.122642   -0.718515    0.055169
C      -1.267111   -0.857651    0.021886
O      -0.995409   -2.232249   -0.051162
C      -2.066174   -0.538765    1.289229
C      -2.823144    0.815424    1.420598
C      -4.004962    0.043881    2.069028
C      -3.425857   -1.267202    1.472293
H       0.870823    1.773887   -0.109858
H      -0.862733    1.741468   -0.152364
H      -1.865869   -0.553586   -0.853839
H      -0.025671   -2.292610    0.005592
H      -1.425840   -0.708497    2.161803
H      -2.352089    1.614273    1.998856
H      -3.108626    1.212465    0.437891
H      -3.942131    0.057925    3.160658
H      -5.016731    0.333484    1.776814
H      -3.877295   -1.508856    0.504955
H      -3.435560   -2.165336    2.091516
