19

C       0.201926    1.467185    0.405341
C      -0.064790    0.085999   -0.216870
C      -1.491926   -0.357867   -0.098882
C      -2.404556   -0.454195   -1.104631
O      -2.303217   -0.135623   -2.402168
C      -2.845652   -1.085360   -3.323811
O      -3.615306   -0.878981   -0.650817
C      -3.475030   -1.064661    0.699142
C      -2.214422   -0.754690    1.085097
H       1.256508    1.744259    0.306317
H      -0.401756    2.237598   -0.084000
H      -0.049606    1.476120    1.470927
H       0.208010    0.105722   -1.277329
H       0.591482   -0.653706    0.259866
H      -2.365828   -2.063724   -3.201631
H      -3.926104   -1.191910   -3.190048
H      -2.635668   -0.694012   -4.320158
H      -4.350460   -1.425685    1.211518
H      -1.823659   -0.810152    2.090017
