22

C      -0.019015    1.524387   -0.276166
C       0.083286    0.000810   -0.098912
C       1.123451   -0.583414   -1.070211
C       1.131517   -2.093291   -1.102008
C       0.389920   -2.851206   -2.118598
O       1.807467   -2.700765   -2.208089
N       0.392795   -0.502208    1.249656
C       1.179696    0.285270    2.189436
C      -0.272725    0.036994    2.421795
H       0.956279    2.011625   -0.175632
H      -0.394700    1.750384   -1.278696
H      -0.708499    1.983026    0.438750
H      -0.895305   -0.433587   -0.344602
H       0.936486   -0.208745   -2.082691
H       2.119336   -0.223880   -0.778245
H       1.314919   -2.576306   -0.144284
H       0.037594   -3.858481   -1.899588
H      -0.184358   -2.316532   -2.875455
H       1.932792   -0.264126    2.748077
H       1.466677    1.300123    1.924679
H      -0.941338    0.888284    2.309265
H      -0.601297   -0.697128    3.153208
