19

C      -0.040975    1.469780    0.025362
C       0.026401   -0.045570   -0.009655
O       0.664431   -0.478051    1.195766
C       0.814327   -1.805537    1.342838
N       0.405362   -2.687446    0.441385
N       0.752726   -3.883542    0.991107
C       1.360752   -3.769219    2.198457
C       1.826370   -4.953203    2.981238
C       1.420854   -2.416984    2.466841
H       0.961961    1.901948    0.086648
H      -0.524299    1.843998   -0.882107
H      -0.615709    1.813199    0.890321
H      -0.972347   -0.494396   -0.074003
H       0.598034   -0.406115   -0.873548
H       0.542681   -4.725412    0.484434
H       2.575161   -5.535313    2.431706
H       2.280546   -4.626989    3.918832
H       0.999098   -5.628779    3.227627
H       1.836163   -1.935840    3.336299
