17

C      -0.363053    1.448844   -0.024809
C       0.090840    0.019621    0.023682
O      -0.993418   -0.947702    0.067498
C      -0.389415   -1.659714    1.180558
C       0.844859   -0.754692    1.170696
C       1.947805   -1.192588    0.167957
O       2.282912   -2.551094    0.083677
C       1.123331   -0.567258   -0.974803
O       1.194077   -0.661895   -2.166287
H       0.492487    2.131577   -0.009114
H      -0.923212    1.624789   -0.948878
H      -1.014621    1.677497    0.823555
H      -1.011963   -1.575893    2.077965
H      -0.205999   -2.713685    0.952404
H       1.173616   -0.300597    2.102585
H       2.843233   -0.566803    0.330965
H       2.321794   -2.778467   -0.853174
