23

C      -0.678509    1.245153    0.159350
C       0.034223   -0.100426    0.049313
C       1.131316   -0.143444   -1.034916
O       2.129377   -1.063136   -0.593730
C       1.716346   -1.646100    0.638814
C       0.797739   -0.609350    1.301960
C       1.591475    0.455832    2.035190
C       0.977613    1.248580    3.161301
C       2.036994    0.215866    3.456758
H       0.017893    2.046947    0.420851
H      -1.153738    1.509659   -0.791682
H      -1.462227    1.220616    0.923011
H      -0.712111   -0.866718   -0.196901
H       0.733224   -0.461223   -2.007733
H       1.598372    0.842282   -1.173065
H       1.175666   -2.590090    0.459903
H       2.612426   -1.869651    1.225536
H       0.109496   -1.088553    2.007990
H       2.302195    0.990871    1.410647
H       1.235101    2.297475    3.260266
H      -0.044156    1.017126    3.444748
H       1.724092   -0.705845    3.937547
H       3.021788    0.557346    3.755499
