15

N      -0.127086    1.209223   -0.460816
C      -0.020980    0.055777    0.051984
N      -1.142812   -0.643881    0.464396
C      -1.098282   -1.985992    0.787833
C      -2.384933   -2.703257    0.783512
O      -3.435488   -2.167747    0.512937
C       0.067630   -2.572575    1.100106
C       1.280105   -1.699126    1.112055
O       1.163760   -0.603192    0.184235
H       0.794885    1.578619   -0.682134
H      -2.039220   -0.251475    0.214073
H      -2.317671   -3.774658    1.059054
H       0.130222   -3.623495    1.349502
H       1.459199   -1.290926    2.119600
H       2.182245   -2.236607    0.809037
