19

C      -0.298069    1.414745    0.268377
C       0.027712   -0.062319    0.061604
C       0.854663   -0.381152   -1.244421
C       0.907741    0.569891   -2.432361
C       2.093732   -0.524844   -0.356103
O       3.273264   -0.464341   -0.542229
C       1.212891   -0.620717    0.918467
C       1.717877    0.018026    2.184120
O       1.106812    0.800982    2.866417
H       0.596711    2.043956    0.213331
H      -0.996138    1.759616   -0.500958
H      -0.745148    1.578268    1.249696
H      -0.883917   -0.657001    0.149049
H       0.592176   -1.390841   -1.589151
H       1.171477    1.585582   -2.126987
H       1.663645    0.231885   -3.147133
H      -0.055503    0.608708   -2.950081
H       1.084126   -1.691336    1.136227
H       2.747842   -0.302834    2.455912
