21

C      -0.136441    0.792166    0.483420
O      -0.344472    0.318860   -0.835090
C       0.747039   -0.356788   -1.414268
C       0.776462   -1.875790   -1.136766
C       1.312949   -2.741915   -2.292344
C       1.704820   -4.075580   -1.624287
C       2.310374   -3.647238   -0.279168
C       1.617000   -2.325300    0.067905
O       1.740737   -1.729553    1.109590
H       0.068703   -0.018364    1.190821
H       0.706317    1.499568    0.523815
H      -1.050139    1.317792    0.772786
H       0.642377   -0.215911   -2.496550
H       1.700793    0.100779   -1.109002
H      -0.258428   -2.177370   -0.917805
H       0.586396   -2.864050   -3.099550
H       2.203019   -2.266077   -2.726139
H       0.806886   -4.681474   -1.456504
H       2.388453   -4.671017   -2.234139
H       2.206416   -4.369237    0.534480
H       3.382830   -3.431588   -0.374431
