18

N      -0.337775    1.109277    0.055278
C      -0.162297   -0.271785    0.498397
C       1.102027   -0.366914    1.401542
N       2.291823    0.229447    0.785437
C       0.811792    0.362644    2.657322
N       0.531564    0.929743    3.624440
C       1.471053   -1.804508    1.773989
C       0.549151   -2.942663    1.751671
O       1.494203   -2.735307    0.693236
H      -0.955628    1.149325   -0.746840
H      -0.766921    1.664844    0.789195
H      -1.031774   -0.678718    1.035300
H       0.024989   -0.905850   -0.372840
H       2.604354   -0.399612    0.049171
H       1.993018    1.088275    0.325977
H       2.341997   -1.853188    2.426452
H       0.752944   -3.796414    2.395046
H      -0.493397   -2.808794    1.476038
