16

C       0.214157    1.592882   -0.022835
C      -0.012339    0.089476    0.140142
N       0.671790   -0.463428    1.288522
N       2.066842   -0.532861    1.329923
C       2.309095   -1.061570    2.483375
O       3.513191   -1.338828    2.992600
N       1.183799   -1.340813    3.198553
C       0.071227   -0.950443    2.424193
O      -1.104478   -1.035501    2.709511
H       1.280293    1.812202   -0.125184
H      -0.300381    1.955818   -0.917793
H      -0.170804    2.140384    0.842387
H      -1.070276   -0.135445    0.297942
H       0.320746   -0.447264   -0.755408
H       4.169301   -1.068740    2.336104
H       1.124111   -1.754492    4.112437
