21

C       0.003214    1.586967   -0.085353
C       0.039906    0.044624   -0.009494
C       0.652507   -0.488099   -1.227528
C       1.135408   -0.889230   -2.252642
C       0.748695   -0.497751    1.269006
C       0.857866   -2.030484    1.235637
O       2.044133    0.087303    1.308582
C      -0.015763   -0.064021    2.533743
O       0.790054   -0.453918    3.645584
H       1.013610    1.986504    0.014114
H      -0.407721    1.901626   -1.047340
H      -0.623734    2.013618    0.702015
H      -0.993975   -0.327218    0.029180
H       1.569125   -1.252099   -3.151195
H       1.499452   -2.336723    0.408492
H       1.285247   -2.392139    2.174027
H      -0.125343   -2.496733    1.106693
H       2.353345   -0.034561    2.215430
H      -0.158769    1.022198    2.533736
H      -1.002542   -0.549128    2.571422
H       0.502888    0.037276    4.419593
