20

C       0.516817    1.459863   -0.500923
C       0.086682    0.074746   -0.068241
C       1.088611   -1.052505    0.024012
C       0.462508   -0.495148    1.280287
C       1.232255    0.291077    2.316476
C       2.314133   -0.402223    3.086421
N       2.658352    0.653067    2.129823
C       0.440242    1.293208    2.994252
C      -0.257064    2.095607    3.555747
H       1.510766    1.715370   -0.123618
H       0.542301    1.534694   -1.593538
H      -0.176116    2.219934   -0.126148
H      -0.902228   -0.208472   -0.419584
H       0.801774   -2.050740   -0.288098
H       2.123387   -0.810681   -0.201949
H      -0.296383   -1.123875    1.739011
H       2.475586   -0.148064    4.129303
H       2.515073   -1.437120    2.821013
H       3.003897    0.232890    1.270754
H      -0.858205    2.815463    4.053522
