23

C       0.825044   -0.583080    1.261719
C       0.088117   -0.181362   -0.012713
O       0.808683   -0.608797   -1.181373
C      -1.404811   -0.623250   -0.053169
C      -1.575643   -2.131014    0.134685
O      -2.076517   -0.021211    1.058205
C      -2.106476   -0.189064   -1.378633
C      -2.071911    1.319393   -1.660742
O      -1.621511   -0.915492   -2.496873
H       1.808767   -0.107010    1.292940
H       0.251929   -0.282308    2.141395
H       0.972361   -1.667991    1.311734
H       0.099846    0.913205   -0.082050
H       1.049806   -1.533141   -1.053337
H      -1.187908   -2.452276    1.103910
H      -2.638492   -2.384421    0.097961
H      -1.077407   -2.683869   -0.664165
H      -2.037200    0.935199    0.951864
H      -3.155545   -0.486970   -1.261229
H      -2.508524    1.911462   -0.847672
H      -1.053502    1.676547   -1.844277
H      -2.658286    1.520724   -2.560823
H      -0.661730   -0.786708   -2.493076
