23

C       0.042843    1.552517   -0.305253
C       0.022370    0.070800    0.078024
C      -1.345242   -0.572365   -0.145416
C      -1.394044   -2.040691    0.226007
O      -0.432999   -2.637948    0.658276
C      -2.728327   -2.798024    0.042349
C      -2.500237   -3.947553   -0.951093
C      -3.178322   -3.326063    1.413131
O      -3.678196   -1.866707   -0.474909
H       1.031220    1.991213   -0.136842
H      -0.208460    1.694819   -1.362454
H      -0.680888    2.127197    0.283844
H       0.775519   -0.478756   -0.497182
H       0.309220   -0.051866    1.128160
H      -2.134052   -0.058077    0.419913
H      -1.672266   -0.480679   -1.189912
H      -1.692317   -4.595090   -0.603516
H      -3.412072   -4.547455   -1.051918
H      -2.237566   -3.554307   -1.937517
H      -3.392977   -2.495220    2.091584
H      -4.088745   -3.927216    1.307097
H      -2.397564   -3.948932    1.855061
H      -4.512575   -2.332325   -0.590958
