13

C       0.113598    1.400143   -0.065821
N       0.081551   -0.037867   -0.013835
N       0.128900   -0.802510   -1.181711
C       0.079922   -2.018375   -0.747299
O       0.097196   -3.128066   -1.491299
N       0.004709   -2.106539    0.609968
C       0.002905   -0.795531    1.129487
O      -0.054334   -0.450623    2.290625
H       1.038520    1.753702   -0.532599
H      -0.739985    1.789799   -0.629649
H       0.064638    1.756304    0.964447
H       0.153169   -2.850684   -2.415630
H      -0.046506   -2.939959    1.169073
