27

C      -0.139648    1.621051   -0.011865
C      -0.080119    0.091160   -0.020309
C       0.714207   -0.476825   -1.201621
C       0.775557   -2.009059   -1.212826
C       1.523034   -2.605449   -2.408211
C       3.030613   -2.273280   -2.471841
C       3.673294   -3.381706   -3.350770
C       2.587814   -4.483819   -3.509117
C       1.516985   -4.143354   -2.459089
H       0.864482    2.056192    0.044880
H      -0.612431    2.003806   -0.923391
H      -0.712895    1.995685    0.842118
H       0.365615   -0.263491    0.918670
H      -1.100161   -0.315385   -0.041757
H       0.265613   -0.124655   -2.141575
H       1.732304   -0.065858   -1.180711
H       1.250771   -2.360713   -0.285229
H      -0.249046   -2.406007   -1.197105
H       1.049406   -2.237786   -3.331625
H       3.226944   -1.269087   -2.857066
H       3.445821   -2.307806   -1.456387
H       3.980979   -2.993038   -4.325847
H       4.576950   -3.777147   -2.877767
H       2.146975   -4.435353   -4.511155
H       2.991540   -5.493388   -3.391501
H       1.807774   -4.538657   -1.475959
H       0.533236   -4.560716   -2.696642
