20

C      -0.016039    1.564084    0.018773
C      -0.005730    0.034027    0.047284
C      -1.419598   -0.557690   -0.036068
N      -1.446420   -2.007919   -0.009283
C      -1.462993   -2.823070   -1.104982
C      -1.373751   -4.134058   -0.684025
C      -1.295557   -4.099766    0.734550
O      -1.207215   -5.154563    1.599317
C      -1.337003   -2.781970    1.130793
H       0.999183    1.966025    0.081686
H      -0.466520    1.943322   -0.905417
H      -0.588462    1.975133    0.857867
H       0.588657   -0.357455   -0.786452
H       0.474241   -0.324302    0.965116
H      -2.030627   -0.184887    0.794496
H      -1.908559   -0.232001   -0.960627
H      -1.539523   -2.407780   -2.097652
H      -1.384026   -5.010774   -1.314755
H      -1.196681   -5.965437    1.083545
H      -1.307981   -2.341583    2.113193
