19

C      -0.238988    1.284775    0.226542
O       0.622946    0.201315   -0.083839
C       0.993046   -0.512781    1.046705
C       0.084502   -1.585322    1.592406
O      -1.159890   -1.875654    1.032835
C      -1.259127   -2.137692   -0.369381
C      -0.040788   -2.749880   -0.989633
C       1.162085   -2.665842   -0.426715
C       1.355988   -1.988142    0.873587
H       0.250269    2.005893    0.898249
H      -0.473618    1.784837   -0.716004
H      -1.166856    0.936939    0.698479
H       1.589548    0.054106    1.766208
H       0.028517   -1.719168    2.668142
H      -2.120388   -2.809045   -0.475801
H      -1.511128   -1.205624   -0.898235
H      -0.184694   -3.249080   -1.943101
H       2.032674   -3.105154   -0.903828
H       2.191469   -2.335081    1.473231
