20

O       0.026849    1.602741   -0.066862
C       0.133200    0.197921   -0.283322
C      -1.229818   -0.412583    0.039961
N      -1.577279   -0.056813    1.413346
C      -2.180754   -0.912213    2.272501
O      -2.498179   -2.058245    2.018876
C      -2.295171    0.008215   -0.957375
C      -2.535059   -0.837792   -2.184125
C      -3.557733   -0.802802   -1.075221
H       0.887550    2.003208   -0.216587
H       0.392739   -0.028000   -1.327047
H       0.899354   -0.242814    0.370819
H      -1.140037   -1.503258    0.020804
H      -1.366762    0.884605    1.706678
H      -2.350705   -0.448712    3.264916
H      -2.382213    1.083185   -1.082074
H      -2.763024   -0.335323   -3.117608
H      -1.948722   -1.743881   -2.302277
H      -3.645520   -1.672676   -0.434290
H      -4.489162   -0.276657   -1.252783
