17

C       0.055639    1.673263    0.010628
C      -0.058219    0.157919   -0.007639
O      -1.367810   -0.263412   -0.261708
C       1.145046   -0.646000   -0.630330
O       1.950304   -0.212024    0.528660
C       0.664414   -0.647265    1.108981
C       0.759389   -1.917830    0.194134
C      -0.332749   -2.810073   -0.121985
C      -1.161281   -3.644831   -0.372144
H       1.070320    1.991677    0.246835
H      -0.217348    2.082896   -0.970298
H      -0.637928    2.088944    0.748076
H      -1.698981    0.211822   -1.030842
H       1.607644   -0.589139   -1.616910
H       0.551477   -0.595936    2.192430
H       1.661898   -2.480937    0.445148
H      -1.921561   -4.351664   -0.594552
