21

C      -0.390550    1.296382    0.360626
C      -0.009617   -0.119657    0.064872
C      -0.210351   -0.794032   -1.069525
C       0.349712   -2.193636   -1.026890
C       0.680108   -2.403282    0.480527
C       0.731087   -0.969037    1.077393
C      -0.403396   -3.220970    1.146168
C      -0.265178   -4.659292    1.400532
O      -0.128516   -3.709691    2.461349
H       0.493444    1.901825    0.599869
H      -0.902511    1.764023   -0.484886
H      -1.050342    1.355601    1.235652
H      -0.690485   -0.385085   -1.952802
H      -0.353469   -2.949417   -1.400153
H       1.249073   -2.282471   -1.651648
H       1.629615   -2.926825    0.622011
H       1.765304   -0.615277    1.192691
H       0.286064   -0.928834    2.079212
H      -1.413859   -2.821978    1.027621
H      -1.148565   -5.294660    1.451537
H       0.653558   -5.168182    1.109954
