19

C       0.078254    1.463066   -0.069686
C       0.086663   -0.049929    0.004143
O       1.103357   -0.689525    0.157842
C      -1.240074   -0.769272   -0.152639
C      -1.186323   -2.182802   -0.688292
C      -0.762867   -2.244636   -2.153863
O      -0.821089   -3.607291   -2.545996
C      -2.347626   -0.357766    0.739986
O      -2.325681    0.054570   -0.618007
H       1.072937    1.836578    0.175034
H      -0.197659    1.774655   -1.082744
H      -0.665681    1.904551    0.599138
H      -0.477998   -2.760688   -0.088244
H      -2.172740   -2.645965   -0.591670
H      -1.443225   -1.623495   -2.757002
H       0.253830   -1.839746   -2.263687
H      -0.518207   -3.670970   -3.456223
H      -3.099149   -1.101942    0.998994
H      -2.200498    0.430104    1.477086
