21

C      -1.097261    1.030669   -0.546051
C       0.000364    0.103444   -0.052645
O       0.593075   -0.528051   -1.169485
C       1.634396   -1.417333   -0.822532
C       2.223436   -1.955533   -2.110374
C       3.095032   -3.241034   -2.183181
C       1.848640   -4.132944   -1.962819
C       1.512409   -3.023859   -2.988026
O       2.821103   -3.287391   -3.638390
H      -0.685228    1.788515   -1.218313
H      -1.859071    0.466956   -1.091963
H      -1.576753    1.536901    0.297041
H       0.761593    0.669173    0.511536
H      -0.412268   -0.652542    0.637548
H       2.418826   -0.888370   -0.252844
H       1.252122   -2.216127   -0.167952
H       2.634850   -1.146700   -2.718496
H       4.126015   -3.396496   -1.862639
H       1.929029   -5.133154   -2.389296
H       1.352920   -4.129771   -0.990437
H       0.642584   -2.914846   -3.635025
