15

N      -0.108671    1.330003    0.155073
C       0.033165   -0.049895    0.023558
O       1.119860   -0.577604   -0.122969
C      -1.224696   -0.804347    0.027970
C      -1.411926   -2.165355    0.203541
C      -2.803226   -2.407765    0.132780
O      -3.465513   -3.590300    0.266926
C      -3.436592   -1.199837   -0.094156
N      -2.465318   -0.230533   -0.129153
H       0.775659    1.804113    0.276644
H      -0.837415    1.660628    0.770878
H      -0.621814   -2.877677    0.385209
H      -2.818038   -4.292495    0.377566
H      -4.480669   -0.972630   -0.228541
H      -2.610795    0.709065   -0.456679
