17

C      -0.195718    1.432615   -0.182410
O       1.151134    1.612761    0.310742
C       1.357811    0.189526    0.434993
C      -0.053168   -0.080469   -0.078929
C      -1.020914   -1.136609    0.396494
O      -2.397594   -0.862293    0.304341
C      -2.642482   -0.438974   -1.026637
O      -1.599309   -0.934386   -1.849455
C      -0.500838   -1.183574   -1.006692
H      -0.942753    1.885590    0.481766
H      -0.320174    1.829364   -1.198027
H       2.176863   -0.165964   -0.204543
H       1.555052   -0.109797    1.473130
H      -0.781710   -1.831314    1.193070
H      -3.599041   -0.847780   -1.367494
H      -2.668184    0.661692   -1.073006
H       0.184162   -1.918535   -1.412866
