21

C       0.464902    1.601155   -0.296977
C       0.111283    0.136982    0.008907
C       0.436111   -0.777901   -1.149841
C       1.515129   -1.535629   -0.943734
C       2.156072   -2.489888   -1.901009
C       2.095225   -1.286510    0.432866
C       0.953719   -0.519940    1.162195
C       1.404241    0.378705    2.213426
C       1.784225    1.116254    3.084464
H       1.526272    1.708714   -0.542709
H      -0.114337    1.960072   -1.154106
H       0.248516    2.246160    0.559009
H      -0.952835    0.095850    0.272058
H      -0.130008   -0.751490   -2.076072
H       1.618706   -2.529585   -2.852436
H       3.195268   -2.203461   -2.108643
H       2.192766   -3.505310   -1.486024
H       2.366095   -2.207287    0.961747
H       3.011342   -0.683992    0.371474
H       0.306789   -1.278882    1.619113
H       2.118021    1.765879    3.855000
