19

C      -0.001123    1.499125    0.035614
C       1.308540    0.717339    0.019007
C      -0.009790    0.008211   -0.047859
O      -0.425866   -0.731041    1.091417
C      -1.099237   -1.910899    0.555074
C      -0.236289   -2.228609   -0.677242
C      -0.492280   -0.810666   -1.259819
C      -2.014266   -0.759893   -1.196391
C      -2.387294   -1.430465   -0.101047
H      -0.304310    1.939415    0.978951
H      -0.269651    2.077606   -0.842719
H       1.926811    0.762077   -0.872169
H       1.857345    0.646168    0.951470
H      -1.171812   -2.643585    1.356507
H       0.809345   -2.421897   -0.423600
H      -0.640111   -3.025816   -1.302563
H      -0.020426   -0.545824   -2.205044
H      -2.638551   -0.179236   -1.863339
H      -3.377552   -1.515317    0.326576
