18

C      -1.435633    1.363255    0.310982
N      -1.571100    0.047932   -0.491726
C      -0.750850   -0.602182    0.665932
C       0.326978   -1.554195    0.205661
C       1.629865   -0.747236    0.235262
C       1.415947    0.620773    0.939122
C      -0.027076    0.747033    0.478506
C      -0.131901    0.356983   -1.010196
C       0.787756   -0.840138   -1.042152
H      -2.089736    1.406820    1.185940
H      -1.538994    2.260262   -0.305456
H      -1.326785   -0.814272    1.567299
H       0.299624   -2.630218    0.305560
H       2.582409   -1.260138    0.293499
H       2.087537    1.391489    0.548687
H       1.542918    0.547487    2.023550
H      -0.084531    1.110807   -1.796741
H       1.126550   -1.348733   -1.933838
