15

N       0.157172    1.294498   -0.379342
C       0.085812   -0.068521   -0.134637
N      -1.063035   -0.711591    0.071201
N      -0.661899   -1.961063    0.332633
N       0.639638   -2.182100    0.301474
C       1.154190   -0.987232    0.009697
C       2.634437   -0.757463   -0.104725
C       3.006948   -0.022325   -1.313881
C       3.287201    0.605814   -2.300306
H       0.902903    1.541206   -1.018217
H      -0.729285    1.681685   -0.673984
H      -1.320383   -2.692264    0.539581
H       3.000713   -0.202845    0.770713
H       3.136350   -1.730637   -0.086546
H       3.559704    1.136678   -3.178915
