20

C      -0.118581    1.508003   -0.005701
C       0.032768   -0.008821    0.014296
C       1.204165   -0.592611   -0.830337
C       2.114316   -0.437624    0.421837
C       0.797449   -0.605997    1.232912
C       0.476667   -2.103654    1.315788
O       0.962428   -2.809325    0.179381
C       0.942519   -2.088318   -1.047449
H       0.828428    2.023192    0.184335
H      -0.490300    1.849729   -0.978227
H      -0.832418    1.838472    0.757179
H      -0.943950   -0.471196   -0.181238
H       1.475674   -0.095468   -1.766012
H       2.899122   -1.182422    0.571708
H       2.537581    0.563702    0.511768
H       0.692348   -0.121258    2.207765
H       0.968060   -2.566733    2.179315
H      -0.611204   -2.246662    1.430439
H      -0.020112   -2.227205   -1.568134
H       1.725991   -2.541783   -1.665617
