18

O       0.152983    1.406019    0.269326
C       0.075768    0.039712   -0.001211
C      -1.383971   -0.422811    0.054110
O      -2.265861    0.382581    0.309316
N      -1.606710   -1.740969   -0.192214
C      -2.913371   -2.342668   -0.181840
C      -3.334119   -3.223623   -1.381966
O      -3.709177   -4.299119   -0.500279
C      -3.128109   -3.636336    0.638995
H      -0.768797    1.676937    0.419686
H       0.484057   -0.192981   -0.998447
H       0.660796   -0.544916    0.727703
H      -0.811821   -2.328799   -0.395075
H      -3.623077   -1.551063    0.052214
H      -4.172678   -2.871072   -1.991663
H      -2.499478   -3.499539   -2.043507
H      -2.192716   -4.114176    0.966216
H      -3.818077   -3.581618    1.487614
