16

O       0.009084    0.020270   -0.382395
C      -0.026545    1.162819   -0.027317
C      -1.269795    1.964177    0.374136
C      -0.724809    3.238997    0.974695
C       0.227544    3.108994    2.105120
N       0.745461    3.356304    0.752220
C       1.199675    2.130334    0.068085
C       2.362761    1.510468    0.678692
C       3.310555    0.985990    1.197330
H      -1.862515    2.156430   -0.528368
H      -1.892684    1.370862    1.049146
H      -1.284663    4.159281    0.841612
H       0.368366    3.931991    2.798700
H       0.377224    2.122602    2.541143
H       1.440304    2.408049   -0.968957
H       4.154771    0.523653    1.646207
