18

C       0.027213    1.527911   -0.161862
C       1.581635    1.572679    0.114536
C       1.526966    0.122311    0.630773
O       1.633185   -0.318812    1.976716
C       0.919941   -1.498385    1.486442
C      -0.507249   -0.913831    1.235989
C       0.032089    0.013821    0.141411
N       0.527800   -0.895506   -0.942081
C       1.568146   -1.276455    0.017463
H      -0.544801    2.104643    0.569643
H      -0.292971    1.806384   -1.167505
H       2.201626    1.706040   -0.773826
H       1.896957    2.289035    0.875844
H       1.068979   -2.385292    2.100779
H      -1.251513   -1.637785    0.890455
H      -0.867242   -0.413069    2.136878
H      -0.125736   -1.633279   -1.202450
H       2.428877   -1.875941   -0.287342
