17

O       1.449440    1.544440    0.574116
C       0.571529    0.718694   -0.137812
C       1.276068    0.122642   -1.372221
N       0.315659   -0.572261   -2.217118
C      -0.296546    0.215612   -3.286173
C       0.726893   -0.819714   -3.594263
C       0.032498   -0.378826    0.759145
O       0.335272   -0.434767    1.928442
H       1.441904    1.203299    1.483267
H      -0.304041    1.290481   -0.497178
H       1.795796    0.946782   -1.889420
H       2.041983   -0.589921   -1.044496
H      -1.348998    0.024120   -3.472765
H       0.004533    1.257351   -3.385992
H       1.711139   -0.469363   -3.900683
H       0.434894   -1.780084   -4.008723
H      -0.637079   -1.118090    0.283882
