19

C      -0.017870    1.533962    0.011873
C       0.001754    0.033465    0.002301
C       0.645555   -0.866763   -1.119831
C      -0.625222   -1.788206   -1.114966
C       0.037209   -2.692928   -0.015014
C       1.307827   -1.769454   -0.020009
C       0.664437   -0.880184    1.102416
C      -0.606445   -1.801464    1.106710
C      -1.269101   -0.898802    0.007061
H       0.998914    1.945765    0.005900
H      -0.541708    1.931395   -0.866252
H      -0.526437    1.919909    0.904017
H       1.146180   -0.485572   -2.009929
H      -1.141075   -2.152720   -2.002100
H       0.051561   -3.781918   -0.021524
H       2.339073   -2.119306   -0.031164
H       1.179813   -0.510232    1.988804
H      -1.107674   -2.177025    1.997635
H      -2.299433   -0.543212    0.018095
