17

O       0.845165   -0.676288   -1.126509
C       0.200831   -0.044550   -0.031607
C      -1.268208   -0.426750    0.004347
C      -2.265848    0.260763    0.970520
O      -1.689427    1.286001    1.751772
C      -3.060050    0.665348   -0.276305
C      -2.206768    1.449614   -1.185053
N      -2.077392   -0.022876   -1.215124
H       0.296201   -0.518067   -1.903328
H       0.695839   -0.399703    0.878162
H       0.332134    1.045730   -0.061041
H      -1.337747   -1.515366    0.077087
H      -2.802177   -0.461392    1.598138
H      -2.386156    1.714542    2.259790
H      -4.132548    0.562756   -0.407777
H      -2.665142    1.838296   -2.088659
H      -1.414859    2.065475   -0.770614
