20

C      -0.272625    1.375597    0.212848
C      -0.110949   -0.109405   -0.115630
C       0.874712   -0.404625   -1.272904
O       2.140593    0.154317   -1.000419
C       0.954677   -1.914755   -1.567292
C      -0.202083   -2.122377   -2.551396
O      -0.342232   -0.864551   -3.256181
C       0.339380    0.106991   -2.605579
N       0.561912    1.276981   -3.028047
H       0.692706    1.811706    0.482751
H      -0.669303    1.936534   -0.637303
H      -0.952691    1.507108    1.059667
H       0.275384   -0.640654    0.762549
H      -1.087097   -0.554892   -0.347972
H       2.175699    0.981033   -1.504027
H       1.916021   -2.124318   -2.043861
H       0.862959   -2.537086   -0.674731
H      -0.015480   -2.896578   -3.298574
H      -1.149078   -2.343777   -2.047398
H       0.163646    1.434950   -3.953702
