15

C      -0.216229    1.524692    0.032194
C       0.144728    0.061572   -0.027338
O       1.256347   -0.392701   -0.025463
O      -0.992675   -0.684886   -0.084537
C      -0.942648   -2.058835   -0.146969
C      -2.093962   -2.816854   -0.209326
N      -1.672048   -4.102949   -0.258243
N      -0.335887   -4.230130   -0.231951
C       0.128163   -2.983587   -0.163686
H       0.695639    2.118303    0.078231
H      -0.800301    1.804074   -0.849241
H      -0.836720    1.723506    0.910590
H      -3.133461   -2.534967   -0.221244
H      -2.239535   -4.931244   -0.309984
H       1.184217   -2.788412   -0.129549
