17

O       0.158687    1.412066   -0.186196
C       0.053390    0.035091   -0.035627
C       0.017818   -0.644889    1.368971
C      -1.452693   -0.152873    1.521278
C      -1.371615   -0.675057    0.060788
C      -2.441048   -0.683214   -0.969900
O      -3.501325   -0.117555   -0.845933
C      -0.592726   -1.888124    0.641021
O       0.165371   -2.622041   -0.281823
H      -0.408269    1.859188    0.450653
H       0.734084   -0.410287   -0.757253
H       0.797752   -0.638475    2.131844
H      -2.096720   -0.716948    2.200306
H      -1.619556    0.916191    1.660247
H      -2.188861   -1.242128   -1.898406
H      -1.197827   -2.539454    1.283786
H       0.705032   -3.255352    0.201469
