14

N      -0.043365    1.413714    0.153366
C       0.029602    0.019980    0.045646
C      -1.048773   -0.864551    0.023153
N      -0.556528   -2.137584   -0.006116
C       0.802432   -2.079456   -0.004643
C       1.210532   -0.757733    0.028109
N       1.556215   -3.277267   -0.039821
O       0.920810   -4.338775   -0.069147
O       2.780716   -3.185289   -0.039685
H       0.760031    1.883125   -0.241825
H      -0.890177    1.805093   -0.236518
H      -2.109462   -0.672266    0.032710
H      -1.060989   -3.008440   -0.032767
H       2.232805   -0.417774    0.040975
