20

C      -0.066059    1.483201    0.017800
C       0.024540   -0.021850   -0.021026
C      -0.042135   -0.720891   -1.375386
C      -0.578516   -2.101831   -1.046227
C       0.114515   -2.852208    0.073518
C       1.277814   -2.144907    0.747740
C       0.710901   -0.771492    1.065179
N      -0.780198   -0.778400    0.984720
C      -1.138928   -2.054370    0.357669
H       0.783938    1.940390   -0.501962
H      -0.984919    1.832098   -0.466621
H      -0.070228    1.844607    1.049386
H      -0.733241   -0.188004   -2.039010
H       0.934224   -0.744654   -1.874886
H      -1.063695   -2.681946   -1.823295
H       0.093427   -3.936001    0.048747
H       1.560808   -2.662937    1.670729
H       2.173037   -2.088966    0.116267
H       1.134044   -0.217114    1.899558
H      -2.084875   -2.487645    0.655009
