20

C      -0.020697    1.576552   -0.045113
C       0.062551    0.068047    0.007496
C       0.561876   -0.690993   -1.267529
C       0.515638   -2.214384   -0.843593
C       0.003808   -1.969040    0.565574
C      -0.465130   -2.369658    1.976724
N      -0.595707   -0.839374    2.054551
C       0.676684   -0.718195    1.178261
C      -1.047638   -0.834505    0.572226
H       0.960220    2.020450   -0.250357
H      -0.703847    1.908221   -0.835473
H      -0.382264    1.978792    0.906039
H      -0.086077   -0.488436   -2.126640
H       1.573803   -0.376469   -1.543254
H      -0.166685   -2.798229   -1.467712
H       1.501752   -2.685682   -0.881298
H      -1.421164   -2.894180    2.075558
H       0.274967   -2.779767    2.671677
H       1.668678   -0.654564    1.632281
H      -2.104900   -0.909095    0.306013
