18

C      -0.204581    1.494618   -0.038918
C       0.130767    0.008152   -0.027554
C       1.046079   -0.488764   -1.155210
C       1.627591   -1.762205   -0.587642
N       2.145386   -2.708097   -1.240327
O       1.492089   -1.751644    0.780647
C       0.904735   -0.506580    1.218232
C       1.943944    0.401504    1.701559
C       2.795845    1.148460    2.102177
H       0.702229    2.104461   -0.000582
H      -0.754022    1.752760   -0.949280
H      -0.830934    1.768027    0.816511
H      -0.799192   -0.572123   -0.060087
H       0.539118   -0.674596   -2.102289
H       1.856082    0.227289   -1.340199
H       2.470120   -3.443402   -0.609595
H       0.226367   -0.752309    2.040941
H       3.553400    1.800983    2.461459
