16

O       0.747072    0.390454   -0.849707
C      -0.021079   -0.366745    0.038241
C       0.119407   -0.141128    1.566154
C      -1.430452   -0.411529    1.702448
C      -1.544907   -0.104391    0.157679
C      -1.736271   -1.798230    2.027679
C      -1.968221   -2.950987    2.271785
C      -2.151398    0.509650    2.578374
N      -2.701788    1.273622    3.248669
H       0.607228    1.324738   -0.659863
H       0.171554   -1.411734   -0.216624
H       0.778828   -0.790780    2.141113
H       0.336596    0.905841    1.795889
H      -1.780304    0.952575    0.004360
H      -2.237340   -0.724178   -0.411414
H      -2.182471   -3.966528    2.498547
