19

O      -0.046180    1.485294   -0.079105
C       0.018284    0.099609   -0.027499
C       0.257151   -0.727208    1.363518
C      -0.378183   -1.847436    0.451132
C      -1.543598   -2.858485    0.230983
C      -2.031109   -1.870262   -0.916409
C      -1.292999   -0.756719   -0.102745
C       0.708259   -1.938249   -0.641308
C       0.967088   -0.670049   -0.953926
H       0.848648    1.838253   -0.027637
H       1.294142   -0.849056    1.689673
H      -0.382736   -0.378468    2.178877
H      -1.278457   -3.879955   -0.058306
H      -2.256363   -2.889001    1.058918
H      -1.555945   -2.113453   -1.868417
H      -3.106991   -1.749097   -1.059654
H      -1.978822   -0.406055    0.676322
H       1.138314   -2.857096   -1.017926
H       1.665645   -0.232507   -1.654359
