24

C      -0.136984    1.558751    0.046103
C      -0.183913    0.032777   -0.076005
C       0.771293   -0.504368   -1.148568
C       0.832503   -2.038753   -1.259271
C      -0.502384   -2.657595   -1.691798
C       1.968915   -2.432002   -2.222999
N       2.224724   -3.862896   -2.278562
C       2.041769   -4.618626   -3.394577
O       1.646927   -4.209727   -4.465934
H       0.868700    1.905406    0.309010
H      -0.414238    2.039629   -0.898577
H      -0.825483    1.918920    0.816831
H       0.068756   -0.420311    0.892211
H      -1.210817   -0.278706   -0.299388
H       0.491640   -0.086120   -2.126327
H       1.781002   -0.124805   -0.937242
H       1.090747   -2.434810   -0.264095
H      -0.824903   -2.250005   -2.656759
H      -0.414725   -3.741741   -1.804085
H      -1.292119   -2.463088   -0.961303
H       1.724706   -2.129669   -3.245096
H       2.891248   -1.912226   -1.933221
H       2.560335   -4.326195   -1.448709
H       2.301955   -5.681183   -3.213435
