22

C       0.044367    1.516608    0.109061
C      -0.029367    0.026526   -0.007336
C      -0.050149   -0.724359   -1.120890
C      -0.026432   -0.290799   -2.553166
C      -0.040376   -2.175716   -0.756409
N       1.202644   -2.574817   -0.022465
C      -0.040112   -2.268265    0.725984
C      -0.727035   -3.356968    1.508384
C      -0.053716   -0.831540    1.248087
H       0.970021    1.827742    0.610699
H       0.009926    2.015317   -0.862530
H      -0.783074    1.905762    0.717142
H      -0.073375    0.795216   -2.663436
H       0.886200   -0.640455   -3.052892
H      -0.870459   -0.718979   -3.109510
H      -0.522783   -2.915021   -1.390246
H       1.289736   -3.590308   -0.073444
H      -0.745237   -4.296883    0.945988
H      -0.213856   -3.545935    2.459033
H      -1.762747   -3.085505    1.740923
H       0.809658   -0.630846    1.894989
H      -0.952746   -0.632535    1.849805
