19

C       0.544341    1.016911    0.031793
C       0.544978   -0.408330   -0.486888
O       1.117539   -1.309973    0.078148
C      -0.236958   -0.641777   -1.786711
O      -0.177141   -1.958245   -2.249802
C      -0.995243   -2.878131   -1.549771
C      -0.424122   -4.294614   -1.643367
C       1.068474   -4.407951   -1.841864
O      -1.161444   -5.242916   -1.511571
H       0.910244    1.709252   -0.734470
H      -0.476399    1.328752    0.281406
H       1.171983    1.085078    0.920731
H      -1.273868   -0.291569   -1.642469
H       0.199128   -0.003274   -2.565885
H      -1.038131   -2.637100   -0.478191
H      -2.020796   -2.880861   -1.943288
H       1.586375   -3.769038   -1.119485
H       1.374993   -5.449675   -1.742546
H       1.336485   -4.028845   -2.833629
