17

C      -0.105420    1.360734   -0.029332
O       0.113012   -0.041428   -0.068147
C       0.660162   -0.585410    1.090685
C      -0.205655   -0.633935    2.427230
C      -0.051743   -2.156452    2.399798
N      -0.702581   -2.588207    1.145438
C       0.698763   -2.121549    1.113542
C       2.004873   -0.037743    1.367181
N       3.052991    0.404915    1.571633
H       0.833977    1.914328    0.099856
H      -0.551957    1.629026   -0.988099
H      -0.796417    1.638669    0.778088
H       0.277900   -0.132983    3.265784
H      -1.231989   -0.283760    2.303207
H       0.066089   -2.824124    3.242393
H      -0.664761   -3.606691    1.107793
H       1.501238   -2.740679    0.735022
