21

C      -0.526773    1.414602    0.148420
C       0.135371    0.040955   -0.030526
O       1.022374    0.069174   -1.115921
C       0.879122   -0.422678    1.229665
O       2.059795   -0.689873    1.143333
C       0.100888   -0.560587    2.526476
C       0.892197   -1.186285    3.650165
C       1.710573   -0.326184    4.575786
C       0.454130   -0.992663    5.080010
H       0.215803    2.165159    0.436435
H      -0.965423    1.720087   -0.804549
H      -1.321061    1.389312    0.900244
H      -0.659822   -0.704678   -0.213108
H       1.870754   -0.238340   -0.755861
H      -0.252035    0.438617    2.816521
H      -0.813305   -1.132465    2.310723
H       1.320342   -2.152548    3.403118
H       2.669341   -0.703647    4.911799
H       1.688851    0.748001    4.422735
H      -0.412962   -0.367309    5.267918
H       0.550832   -1.828337    5.764006
