19

C       0.063697    1.297232    0.072357
O      -0.060789   -0.104724   -0.097761
C       0.667966   -0.612559   -1.173553
O       2.083613   -0.577952   -0.976969
C       2.407257   -1.991988   -0.974597
C       1.323490   -2.607180   -0.064705
C       0.431510   -2.128695   -1.267288
O      -0.863385   -2.551076   -1.512156
C       1.610259   -2.531502   -2.191541
H       1.098066    1.575928    0.303816
H      -0.256921    1.838016   -0.830380
H      -0.583759    1.578743    0.905360
H       0.414860   -0.058251   -2.090927
H       3.476879   -2.126361   -0.837770
H       1.371479   -3.695512   -0.008563
H       1.166459   -2.151191    0.912666
H      -1.439241   -2.037334   -0.931812
H       1.728403   -2.008458   -3.143300
H       1.687235   -3.612368   -2.319237
