21

O       0.248343    1.393211    0.214839
C       0.109172    0.014662    0.009989
C       1.190942   -0.559210   -0.865832
O       2.432595   -0.279448   -0.225370
C       3.547015   -0.573697   -1.008688
C       4.010696    0.426817   -2.036889
C       4.779068    0.227091   -0.744215
C      -0.477813   -0.813060    1.128093
C      -1.296381   -0.478249   -0.105708
H       1.148819    1.516846    0.539811
H       1.057868   -1.643680   -0.998527
H       1.168450   -0.083934   -1.857488
H       3.659040   -1.633175   -1.242454
H       4.439423    0.065045   -2.964876
H       3.431100    1.338882   -2.126412
H       4.696019    1.006495    0.004636
H       5.739493   -0.274630   -0.773785
H      -0.134009   -1.832870    1.263449
H      -0.722921   -0.284422    2.041736
H      -2.072946    0.270668   -0.001798
H      -1.517714   -1.267535   -0.816392
