22

C      -0.127790    1.310895   -0.279461
C       0.199080   -0.131703    0.040519
C       1.624182   -0.632493    0.095820
C       0.788990   -0.603130    1.357481
C       1.160361    0.405598    2.431798
C       0.258671   -1.886232    1.943560
C       0.266895   -3.209944    1.225157
C       1.186358   -2.987093    2.400998
H       0.620094    2.002258    0.118486
H      -0.166964    1.465062   -1.363846
H      -1.101591    1.603316    0.130175
H      -0.504199   -0.839954   -0.391958
H       1.867754   -1.578623   -0.375668
H       2.416986    0.105988    0.018986
H       1.562319    1.332045    2.014529
H       0.290494    0.667065    3.046664
H       1.920613   -0.013737    3.100297
H      -0.607950   -1.724865    2.582827
H      -0.590585   -3.860748    1.357767
H       0.713027   -3.273860    0.238677
H       2.243245   -2.866194    2.186477
H       0.975250   -3.499616    3.333129
