19

C       0.020301    1.508483    0.024205
C       1.327692    0.725001    0.019345
C       0.009570    0.019159   -0.041289
O      -0.424500   -0.718093    1.106628
C      -1.146295   -1.840461    0.572494
C      -2.427609   -1.299620   -0.078489
O      -1.936208   -0.643060   -1.266267
C      -0.507281   -0.789330   -1.219132
C      -0.326969   -2.215242   -0.674150
H      -0.282535    1.959122    0.962683
H      -0.259709    2.067626   -0.862401
H       1.951646    0.754545   -0.868340
H       1.870155    0.659688    0.956170
H      -1.281661   -2.581194    1.359263
H      -3.135527   -2.090696   -0.357699
H      -2.927991   -0.576608    0.574164
H      -0.092674   -0.534110   -2.193168
H       0.704404   -2.477854   -0.434350
H      -0.789380   -2.972905   -1.309072
