12

C      -0.012843   -1.231200    0.046965
C       0.011381   -0.033457   -0.003051
C       0.027147    1.436823   -0.047786
C       1.393748    1.979586   -0.005709
C       2.503159    2.431921    0.042073
C      -0.703540    1.937031   -1.222903
C      -1.314676    2.355431   -2.174340
C      -2.004180    2.828014   -3.254625
N      -2.591707    3.230775   -4.171743
H      -0.028720   -2.292929    0.086240
H      -0.508268    1.805679    0.842347
H       3.488348    2.828240    0.079443
