17

O       0.236061    0.206497   -0.530722
C       0.024884    1.244507    0.005231
C      -1.178263    2.122585    0.353386
C      -0.113548    3.050543    0.970807
O       0.939830    2.100869    0.567828
C       0.099578    4.410928    0.354798
C      -0.811526    5.526932    0.919544
O       0.294539    6.146671    1.600778
C       1.238631    5.247476    0.980916
H      -1.712871    2.515085   -0.514038
H      -1.886140    1.661033    1.043209
H      -0.141002    3.110918    2.063191
H       0.126232    4.328704   -0.734386
H      -1.252849    6.185244    0.160628
H      -1.600103    5.208797    1.613722
H       1.869062    4.734204    1.716097
H       1.881036    5.761778    0.255936
