17

C       0.182229    1.556256   -0.336000
C       0.052671    0.073155   -0.061240
C       1.257429   -0.835966   -0.064570
C       0.515043   -0.577996    1.222658
C       1.181255    0.233090    2.337098
C       0.178227    0.897707    3.186308
N      -0.630905    1.426549    3.817380
C       2.068625   -0.615163    3.149736
N       2.774086   -1.297273    3.757608
H       1.145460    1.959617   -0.007879
H       0.109658    1.748080   -1.411212
H      -0.609299    2.126746    0.160616
H      -0.861004   -0.361955   -0.456803
H       1.186648   -1.823571   -0.505046
H       2.230792   -0.368736   -0.182793
H      -0.100246   -1.383229    1.609385
H       1.803968    1.019465    1.894410
