17

C       0.066921    1.523866    0.058299
C      -0.080919    0.034364   -0.033777
C      -0.954740   -0.779677    0.828852
N       0.508881   -0.908370    1.014707
C       1.071862   -1.759586   -0.118002
C       0.528217   -0.802785   -1.194147
N      -0.235339   -1.921659   -1.741098
C       0.146380   -2.832238   -0.761720
O      -0.178329   -3.965703   -0.542681
H       1.080547    1.839770   -0.211896
H      -0.634504    2.026412   -0.618469
H      -0.133611    1.870072    1.075887
H      -1.421247   -0.271908    1.667918
H      -1.531957   -1.611438    0.436410
H       2.123688   -1.989569    0.032339
H       1.158015   -0.262632   -1.900541
H      -1.044525   -1.940788   -2.347851
