18

C      -0.345091   -1.154350    0.442355
C      -0.145110    0.009146    0.214121
C       0.075194    1.394497   -0.099546
N       0.728454    2.239744    0.931656
C       1.440891    1.968146   -0.321216
C       2.701026    1.139333   -0.212816
C       3.863560    1.976959    0.263536
C       5.227254    1.790867   -0.242881
O       4.425313    2.883619   -0.695224
H      -0.521667   -2.179426    0.655880
H      -0.726219    1.852516   -0.675746
H       0.312656    3.167454    0.917052
H       1.494697    2.773994   -1.051301
H       2.530415    0.314336    0.486350
H       2.940371    0.707365   -1.191266
H       3.740758    2.409213    1.257359
H       6.080363    2.060990    0.377986
H       5.421698    1.016081   -0.984013
