19

C       0.038489    1.556080    0.022119
C       0.075093    0.047283   -0.081110
C       0.644578   -0.746920   -1.223431
C      -0.086609   -1.834392   -1.955653
C       1.939755   -0.090606   -1.705701
O       2.481549   -0.026522   -0.361100
C       1.362158   -0.735636    0.147827
C       1.518398   -1.791717    1.152289
O       2.556331   -2.109429    1.679069
H       1.009930    1.990055   -0.223290
H      -0.715104    1.978357   -0.650827
H      -0.211836    1.862133    1.042469
H      -0.787331   -0.459160    0.351017
H      -0.643655   -1.419487   -2.804577
H       0.602634   -2.590695   -2.345537
H      -0.809731   -2.337357   -1.306828
H       2.546427   -0.757054   -2.328978
H       1.868720    0.896325   -2.176441
H       0.553667   -2.294702    1.398490
