20

C      -0.146707    0.972603    0.159262
O      -0.571925   -0.151974   -0.590315
C       0.426426   -0.684201   -1.394030
C       1.348544   -1.767600   -0.854637
C       1.258684   -2.221478    0.586430
C       0.241582   -2.118973   -1.821894
O      -0.823821   -2.861681   -1.297008
C      -2.068060   -2.491066   -1.685709
N      -3.059099   -3.183804   -1.328602
H       0.671921    0.717397    0.844627
H       0.188448    1.787607   -0.499255
H      -1.007911    1.313715    0.737614
H       0.830910    0.013428   -2.130311
H       2.347879   -1.782541   -1.281733
H       0.247400   -2.096535    0.975154
H       1.522770   -3.279643    0.676096
H       1.947513   -1.648013    1.215006
H       0.500616   -2.391421   -2.842715
H      -2.078987   -1.581648   -2.296337
H      -3.915689   -2.769741   -1.690469
