19

O      -0.157733    1.512369    0.045003
C       0.009886    0.101579    0.153670
C      -1.378350   -0.505286   -0.011064
O      -2.245558    0.032774    0.955080
C      -1.879642   -0.509905   -1.488375
C      -1.426475   -2.000325   -1.607513
C      -1.372326   -2.048388   -0.047413
C      -2.395345   -2.935813   -2.271030
O      -2.140049   -3.671768   -3.189337
H       0.649001    1.945331    0.337172
H       0.699380   -0.281242   -0.612900
H       0.401159   -0.176299    1.143339
H      -2.034471    0.974688    1.007820
H      -2.969517   -0.420550   -1.505737
H      -1.443347    0.206128   -2.186876
H      -0.446097   -2.113283   -2.073766
H      -0.531859   -2.575051    0.411720
H      -2.306823   -2.427219    0.376892
H      -3.422956   -2.896759   -1.833408
