16

C      -0.078047    1.450754   -0.193899
C       0.041763   -0.029310    0.087162
O       1.090746   -0.592606    0.306307
C      -1.235837   -0.812309    0.027936
C      -1.523156   -2.268062    0.493715
C      -2.906364   -1.711363    0.026821
N      -2.563157   -0.354639    0.651127
C      -2.152502   -1.166496   -1.196236
O      -2.196743   -1.076443   -2.374760
H       0.886919    1.936492   -0.046598
H      -0.409765    1.593850   -1.229684
H      -0.843553    1.904753    0.442991
H      -1.066906   -3.100250   -0.048090
H      -1.450211   -2.395270    1.577258
H      -3.895384   -2.155589    0.115648
H      -2.480713   -0.506993    1.663091
