17

C       0.126485    1.555426    0.030552
C       1.296536    0.636728   -0.118910
C      -0.092933    0.053925    0.063102
C      -0.430413   -0.584607    1.347291
N      -0.013439   -0.244388    2.499809
C      -0.621469   -1.172592    3.460709
C      -1.485223   -2.125791    2.591691
O      -1.280718   -1.646310    1.245250
H       0.011233    2.071584    0.976105
H      -0.234178    2.089523   -0.841207
H       1.754911    0.527819   -1.095296
H       1.966793    0.536093    0.726314
H      -0.564952   -0.407377   -0.795162
H       0.157136   -1.706552    4.016728
H      -1.219705   -0.620840    4.194315
H      -1.165428   -3.170937    2.636509
H      -2.554754   -2.075253    2.815661
