19

C       0.102273    1.363843   -0.090021
O       0.100831   -0.044570   -0.035963
C       0.551382   -0.560450    1.203930
C       0.604469   -2.077300    1.037126
O       1.398795   -2.418234   -0.079326
C       1.229359   -2.753977    2.273530
O       0.571451   -2.337332    3.468936
C       1.237059   -4.210456    2.142572
C       1.181011   -5.408915    2.073294
H       1.111664    1.775004    0.064395
H      -0.252189    1.653589   -1.082068
H      -0.566388    1.797780    0.668531
H       1.558181   -0.173890    1.435546
H      -0.122590   -0.278092    2.023170
H      -0.426346   -2.451613    0.916004
H       1.154944   -1.790394   -0.771213
H       2.261292   -2.391741    2.357223
H      -0.206922   -2.894332    3.578723
H       1.154880   -6.468280    2.001656
