20

C       0.082863    1.430160   -0.111290
C       1.306795    0.609070   -0.013377
N      -0.072329   -0.038175   -0.009031
C       0.238147   -0.568865   -1.367518
C      -0.236962   -1.916248   -1.791074
C      -0.776584   -0.664821   -2.462615
C       1.648512   -0.007271   -1.349945
C       2.502698    0.542666   -2.454107
C       2.919603   -0.709599   -1.712319
H      -0.251476    1.949415    0.782008
H      -0.164312    1.919275   -1.050565
H       1.940993    0.589491    0.867533
H       0.439970   -2.552915   -2.351994
H      -0.891273   -2.441039   -1.103500
H      -1.793505   -0.364894   -2.231491
H      -0.461974   -0.449696   -3.479140
H       2.145239    0.433784   -3.473488
H       3.053454    1.459568   -2.270509
H       3.753579   -0.641218   -1.020792
H       2.850279   -1.661253   -2.229862
