16

O       0.405816    0.054175   -0.064758
C       0.188184    1.230337   -0.063076
N      -1.025648    1.956964   -0.127367
C      -0.329716    3.244442    0.008645
C       0.516751    3.294758    1.237689
C       1.005817    2.508938    0.013234
C      -0.749413    4.410060   -0.809502
C      -1.360170    5.606181   -0.207188
O       0.008214    5.603806   -0.619714
H      -1.840114    1.704840    0.423485
H       1.049932    4.225925    1.403083
H       0.212976    2.764725    2.135775
H       1.927939    2.747108   -0.496968
H      -0.987151    4.173830   -1.846990
H      -2.025648    6.227778   -0.803468
H      -1.520060    5.637903    0.869198
