19

C       0.415012    1.232657   -0.567596
C      -0.005528   -0.181981   -0.121899
C      -1.520184   -0.300612    0.043449
O      -1.907912    0.612078    1.061514
C       0.518027   -1.258306   -1.061154
O      -0.207126   -2.016564   -1.657644
C       2.055318   -1.372406   -1.217227
C       2.529200   -0.634600   -2.380370
C       2.899145   -0.020695   -3.344952
H       1.500747    1.347837   -0.602066
H       0.023211    1.456772   -1.564874
H       0.005992    1.960078    0.135970
H       0.453737   -0.370853    0.860475
H      -2.011694   -0.074283   -0.914079
H      -1.783157   -1.334018    0.306541
H      -2.865583    0.583948    1.138721
H       2.559240   -1.013614   -0.312552
H       2.280354   -2.437905   -1.333524
H       3.234092    0.514448   -4.198694
