12

C       0.045030    1.376533   -0.084815
O       1.307832    1.926498    0.416297
C       1.980472    0.762500    0.648837
C       1.188130   -0.325811    0.656529
O      -0.121108    0.038930    0.398904
N       1.820179   -1.439859    1.086609
C       3.046521   -1.003932    1.346847
N       3.194097    0.359827    1.122553
H      -0.772232    2.002247    0.274278
H       0.105233    1.363886   -1.183240
H       3.881355   -1.616056    1.647299
H       4.046454    0.889063    1.192717
