14

C       0.037089    1.505141   -0.006743
C      -0.093282    0.022884    0.070849
C      -1.153823   -0.725957   -0.286204
N      -1.160859   -2.101599   -0.168740
C      -0.107166   -2.667836    0.300628
O      -0.032234   -3.995945    0.445650
C       1.119018   -1.949094    0.726151
O       2.118668   -2.438314    1.167246
O       1.025406   -0.584263    0.569391
H       0.877641    1.788743   -0.649516
H      -0.877073    1.945596   -0.409058
H       0.227360    1.931376    0.984330
H      -2.049362   -0.265904   -0.683072
H      -0.878935   -4.353300    0.139380
