17

C       0.071267    1.489139    0.331344
C      -0.009355    0.030987    0.077590
C      -1.012446   -0.864184   -0.131821
N      -2.395818   -0.693362   -0.128508
N      -0.470182   -2.133112   -0.303321
C       0.809515   -1.957362   -0.196048
C       1.837636   -3.039672   -0.291450
O       1.238734   -4.272938   -0.601433
O       1.180857   -0.690702    0.030244
H       0.602098    1.709936    1.264917
H       0.585416    2.027474   -0.474528
H      -0.936869    1.902879    0.422160
H      -2.699668    0.191934   -0.510341
H      -2.857580   -1.458057   -0.602996
H       2.576650   -2.775224   -1.062462
H       2.388383   -3.096795    0.661917
H       0.282836   -4.132872   -0.558618
