25

C      -1.172832    0.811975    2.246181
C      -0.927065    0.531586    0.757883
C       0.369063   -0.268292    0.564198
C      -2.155284   -0.162868    0.134765
C      -2.108736   -0.320617   -1.375496
O      -1.920933    0.892729   -2.070231
C      -1.545069   -1.564711   -2.030054
C      -3.030689   -1.261202   -2.101498
C      -4.054312   -2.137486   -1.414660
H      -0.327743    1.345903    2.693348
H      -2.071667    1.419244    2.395031
H      -1.306485   -0.122858    2.804092
H      -0.810420    1.502918    0.256719
H       0.295651   -1.251205    1.045409
H       0.595866   -0.438602   -0.492421
H       1.221667    0.254666    1.010306
H      -2.282314   -1.145626    0.604176
H      -3.048081    0.424250    0.387512
H      -0.997057    1.147912   -1.976229
H      -0.954921   -1.435211   -2.931020
H      -1.224788   -2.381625   -1.390374
H      -3.354280   -0.858303   -3.057291
H      -3.672773   -2.562111   -0.481570
H      -4.966952   -1.579167   -1.177716
H      -4.337188   -2.975726   -2.060910
