15

N      -0.119597    1.326856    0.031177
C       0.068915   -0.010981    0.007655
O       1.130632   -0.593387   -0.001720
N      -1.156086   -0.734648   -0.004296
C      -1.271863   -2.101772   -0.022321
C      -2.619780   -2.378100   -0.025570
N      -3.263563   -3.617732   -0.118681
C      -3.243455   -1.098308   -0.007008
N      -2.357288   -0.115070    0.009883
H       0.690531    1.918996    0.033222
H      -1.053775    1.701945    0.030563
H      -0.393617   -2.723639   -0.034232
H      -2.685095   -4.390266    0.183169
H      -4.143491   -3.643360    0.379443
H      -4.301295   -0.875077   -0.006098
