17

C      -0.036663    1.521442   -0.005133
C      -0.010174    0.015559   -0.007388
C      -0.024001   -0.702477   -1.202551
C       0.000788   -2.094962   -1.216683
C       0.040294   -2.801153   -0.017399
C       0.054725   -2.109040    1.186420
C       0.029964   -0.706057    1.206914
C       0.045606   -0.019001    2.455658
C       0.059040    0.562930    3.510741
H       0.849113    1.933339    0.490605
H      -0.074394    1.915344   -1.023679
H      -0.904275    1.902552    0.544209
H      -0.054920   -0.156468   -2.140581
H      -0.010865   -2.625661   -2.162920
H       0.059736   -3.885590   -0.018440
H       0.085339   -2.643821    2.129014
H       0.071588    1.073043    4.441812
