21

C       0.344895    1.523947   -0.108784
C      -0.082427    0.056566   -0.030377
O       0.455948   -0.573336   -1.184831
C      -0.051213   -1.856197   -1.484948
C       0.724106   -2.978965   -0.825600
C       2.179051   -2.796740   -0.507637
C       1.154636   -2.898980    0.621008
C       0.847544   -1.769422    1.530657
C       0.334517   -0.561857    1.281678
H       1.434827    1.602325   -0.058366
H       0.007354    1.961788   -1.051376
H      -0.083158    2.096540    0.718923
H      -1.186594    0.016203   -0.096358
H      -1.119283   -1.919141   -1.221089
H       0.023143   -1.965545   -2.574453
H       0.415300   -3.964192   -1.168443
H       2.863568   -3.624926   -0.655006
H       2.591795   -1.811130   -0.685587
H       1.169142   -3.853225    1.140379
H       1.077614   -1.984454    2.573167
H       0.182467    0.097927    2.134622
