19

C      -0.014107    1.570275   -0.120886
C       0.019241    0.063200    0.014318
C       1.293629   -0.711951   -0.204243
C       0.682063   -0.646954    1.177931
C       1.372239    0.097239    2.269573
N       0.710939    0.140938    3.576108
C       1.983251   -0.600036    3.452322
C       1.914984   -2.033138    3.606987
N       1.889193   -3.183772    3.717371
H       0.934862    2.031410    0.169808
H      -0.205178    1.858185   -1.160213
H      -0.803704    2.010989    0.497599
H      -0.887375   -0.423820   -0.334999
H       1.263451   -1.656063   -0.735974
H       2.199375   -0.136962   -0.375491
H       0.182520   -1.544265    1.528648
H       1.919975    0.985296    1.959866
H       0.877818    1.023790    4.051711
H       2.883807   -0.161546    3.874175
