23

C       0.146060   -0.059970    1.239363
C       1.508160   -0.521561    0.698951
C       2.548293    0.605431    0.811083
O       1.971441   -1.655587    1.446108
C       1.387222   -0.947152   -0.759767
C       2.267029   -2.019686   -1.373396
C       0.768686   -2.215037   -1.280309
C       0.175119   -3.299403   -0.410500
O       0.037832   -1.986331   -2.466699
H      -0.251517    0.769889    0.646766
H      -0.574934   -0.880142    1.209525
H       0.236559    0.285741    2.276539
H       2.674367    0.909281    1.857334
H       3.515296    0.265366    0.431424
H       2.241765    1.489841    0.243423
H       2.038428   -1.387055    2.368013
H       1.186136   -0.102449   -1.412580
H       2.690400   -1.830040   -2.353726
H       2.889860   -2.588432   -0.692245
H       0.720877   -3.396363    0.527524
H      -0.874638   -3.078083   -0.189570
H       0.206804   -4.262767   -0.936431
H       0.088457   -2.790883   -2.995350
