17

O       0.560758    0.714699   -0.648206
C       0.212231   -0.382264    0.142108
C       0.030920   -0.234186    1.689677
C      -1.261048   -1.105630    1.598166
C      -1.258221   -0.832082    0.094927
O      -2.183605    0.079385   -0.475269
C      -2.125641   -1.260869   -1.018574
C      -1.556572   -1.367457   -2.396280
O      -1.837385   -2.257222   -3.158591
H      -0.233629    1.258548   -0.733549
H       0.903490   -1.196896   -0.095984
H       0.842990   -0.598724    2.320233
H      -0.196270    0.801654    1.953866
H      -1.084229   -2.159053    1.829673
H      -2.144144   -0.759660    2.137382
H      -2.993806   -1.884505   -0.812700
H      -0.838690   -0.559600   -2.650205
