18

C      -0.111322    1.449948    0.206655
C       1.326861    1.969660   -0.044227
C       2.102021    0.792419   -0.687125
C       2.504589    0.955942   -2.188169
N       3.972532    1.032715   -2.209395
C       4.334750    0.844188   -1.010233
O       3.413639    0.653591   -0.040341
C       1.231736   -0.398285   -0.392922
C       0.036031   -0.045860    0.073037
H      -0.502118    1.748206    1.186014
H      -0.821881    1.837441   -0.535342
H       1.355540    2.870584   -0.661930
H       1.814985    2.205158    0.904929
H       2.173672    0.104163   -2.793188
H       2.068283    1.857468   -2.630481
H       5.362444    0.816831   -0.663298
H       1.569685   -1.406909   -0.602020
H      -0.768170   -0.734456    0.308520
