19

C       0.519176    0.653797    0.629784
O      -0.100107    0.046302   -0.481223
C      -1.378354   -0.517129   -0.232949
C      -1.975785   -0.835285   -1.598948
C      -1.282351   -1.775940    0.655526
C      -1.290880   -1.493320    2.150918
O      -1.899672   -0.567338    2.644542
C      -0.551100   -2.436075    2.974550
C       0.063771   -3.228981    3.640131
H       1.401575    1.178729    0.254943
H      -0.146385    1.372995    1.128287
H       0.850674   -0.080064    1.380988
H      -2.009664    0.215804    0.291105
H      -3.000688   -1.203972   -1.497587
H      -1.986597    0.064851   -2.218322
H      -1.380100   -1.596020   -2.113653
H      -2.158111   -2.414160    0.474038
H      -0.403058   -2.365144    0.377564
H       0.603215   -3.919533    4.242083
