18

O      -0.013022    1.412553   -0.019755
C      -0.039998   -0.002040   -0.036455
C      -1.451590   -0.472227    0.060431
C      -2.571608    0.246639    0.162883
C      -3.741098   -0.699013    0.080111
C      -3.840061   -1.261390   -1.378648
C      -2.931320   -2.376905   -0.893677
C      -1.831854   -1.915596    0.030587
N      -3.206452   -2.064069    0.554478
H       0.905839    1.694770   -0.016482
H       0.414493   -0.404364   -0.959719
H       0.542676   -0.427004    0.800622
H      -2.645861    1.324954    0.144393
H      -4.666548   -0.393315    0.566066
H      -4.837934   -1.656524   -1.581845
H      -3.519291   -0.619475   -2.204394
H      -2.940796   -3.396485   -1.269137
H      -1.129385   -2.676130    0.362860
