18

O      -0.045426   -0.007195    0.078467
C       0.034239    1.205110    0.043617
N       1.193472    1.905217    0.055386
C       2.522693    1.282712    0.019926
C       3.380709    2.425497   -0.530821
C       2.854991    2.880180   -1.934854
C       2.015909    3.950771   -1.237538
C       2.760437    3.721629    0.076452
C       1.322740    3.342422   -0.023287
H      -0.851566    1.871460    0.008963
H       2.838499    0.972166    1.024913
H       2.503296    0.398113   -0.621262
H       4.453595    2.267395   -0.437975
H       3.651604    3.326824   -2.534079
H       2.329965    2.128716   -2.534807
H       1.670455    4.883986   -1.667868
H       3.193200    4.408020    0.791653
H       0.558773    3.927727    0.473396
