18

N      -0.080047    1.492464    0.120345
C      -0.040939    0.076885    0.079304
C       0.760575   -0.810800    1.038166
C      -0.443823   -1.814722    1.079699
C      -1.204913   -0.892156    0.108091
N      -2.584627   -0.565229    0.062628
C      -0.373514   -0.787872   -1.169851
C      -0.933068   -0.096932   -2.291366
N      -1.347404    0.466995   -3.213901
H       0.626458    1.911102   -0.477927
H      -0.984063    1.825708   -0.202639
H       1.711683   -1.198689    0.662914
H       0.927003   -0.315948    1.996544
H      -0.261466   -2.839829    0.741089
H      -0.913008   -1.847819    2.066462
H      -3.129279   -1.257838   -0.440837
H      -2.973704   -0.470462    0.994584
H       0.274313   -1.619260   -1.440072
