17

C      -0.129923    1.473261    0.055305
C       0.123314    0.004943    0.007943
O      -0.810886   -0.877893    0.695730
C       0.602897   -0.964620    0.986943
C       1.317274   -1.796952   -0.126646
O       2.622515   -2.219505    0.037685
C       0.397811   -2.243796   -1.227670
O      -0.867639   -2.800663   -1.138666
C       0.790625   -0.775719   -1.163713
H       0.782693    2.026168   -0.189032
H      -0.900727    1.758082   -0.669610
H      -0.465215    1.769421    1.052581
H       0.916848   -0.864783    2.020099
H       2.609302   -3.150260    0.288963
H       0.967434   -2.747032   -2.007968
H      -1.316361   -2.305475   -0.439085
H       1.325087   -0.281123   -1.965498
