15

O       0.372830    1.176252   -0.534603
C       0.008062   -0.088474   -0.014421
C       0.437429   -0.281611    1.467649
O      -0.517094   -1.137117    2.084993
C      -1.716035   -1.045797    1.356127
C      -2.294941    0.317477    1.092232
C      -1.477675   -0.403833    0.023377
H      -0.221703    1.829827   -0.149466
H       0.514229   -0.815487   -0.657444
H       1.424558   -0.737882    1.576838
H       0.466268    0.704066    1.956671
H      -2.356472   -1.904972    1.514639
H      -3.364440    0.385545    0.927100
H      -1.871492    1.173041    1.609833
H      -1.967027   -0.738121   -0.883052
