22

C      -0.693473    1.490042   -0.630603
C      -0.272393    0.052729   -0.355701
N       1.022091   -0.463789   -0.926507
C       1.856796    0.377829   -1.763204
C       1.508353   -0.840414    0.403136
C       2.299544   -2.097376    0.607186
C       1.544717    0.351403    1.351838
C       0.233871   -0.333528    1.039130
O      -0.536347   -0.968888    1.997308
H       0.047158    2.217926   -0.287742
H      -0.863730    1.657671   -1.699292
H      -1.636283    1.699241   -0.113390
H      -1.082602   -0.623644   -0.657101
H       2.194683    1.319009   -1.295140
H       2.750951   -0.185764   -2.050596
H       1.321651    0.631568   -2.683729
H       3.332035   -1.984355    0.255979
H       2.336159   -2.359859    1.668680
H       1.843789   -2.927323    0.058685
H       1.928625    0.120186    2.341283
H       1.770223    1.355992    1.005285
H      -0.847612   -0.307442    2.624273
