23

C       0.060241    1.417765    0.110091
C       0.004051   -0.087282   -0.171100
C      -1.376907   -0.683946    0.107536
C      -2.463915   -0.329622   -0.951619
C      -2.318622   -1.747232   -1.561450
C      -1.569003   -2.206823   -0.289784
C      -0.311932   -3.034980   -0.462392
C       0.205874   -3.740319    0.779015
O       0.263380   -3.113118   -1.526099
H       1.052957    1.822770   -0.108395
H      -0.663524    1.967699   -0.500507
H      -0.164438    1.632464    1.160992
H       0.289544   -0.285010   -1.211105
H       0.755027   -0.595539    0.447880
H      -1.658912   -0.468221    1.143366
H      -3.445531   -0.163514   -0.500008
H      -2.242121    0.515365   -1.609049
H      -3.236898   -2.283593   -1.810106
H      -1.648943   -1.775288   -2.423354
H      -2.229657   -2.690628    0.436675
H      -0.490315   -4.537269    1.067063
H       1.188856   -4.171793    0.585906
H       0.258061   -3.046913    1.625862
