13

C      -0.035538    1.502343    0.058084
C      -0.008758    0.017563   -0.031865
C      -0.030818   -0.799456   -1.094398
C       0.014711   -2.199474   -0.625840
O       0.013796   -3.230399   -1.226123
O       0.064797   -2.161813    0.773234
C       0.052461   -0.842956    1.172901
N       0.087769   -0.441917    2.368691
H       0.853479    1.866459    0.583170
H      -0.082016    1.962756   -0.930525
H      -0.896598    1.830927    0.649031
H      -0.074112   -0.547915   -2.143829
H       0.127406   -1.228246    3.019626
