20

C       0.779211    2.218011   -1.969297
C       0.439017    0.777716   -1.663169
C       1.232615   -0.399712   -2.083234
C       2.714318   -0.186106   -1.993097
C       3.224353   -1.029002   -0.836265
O       4.595564   -0.974563   -0.575173
C       2.494014    0.246027   -0.533169
C       3.060542    1.317990    0.346669
N       1.041659   -0.046486   -0.588538
H       1.851333    2.378511   -2.089550
H       0.288595    2.515465   -2.902553
H       0.413949    2.881790   -1.178215
H      -0.633491    0.586173   -1.672462
H       0.762971   -1.286905   -2.499526
H       3.383859    0.190062   -2.759680
H       2.742122   -1.982639   -0.611165
H       5.049309   -1.491910   -1.248299
H       4.151795    1.283884    0.318812
H       2.730134    2.318827    0.056868
H       2.740462    1.146319    1.380802
