18

C       0.085017    1.548695    0.303870
C      -0.030928    0.045854    0.178987
C       1.132703   -0.774143   -0.377880
C       0.763697   -0.849569    1.060072
O       1.632411   -0.329662    2.108143
C       1.181979   -1.290375    2.988810
N       1.399833   -1.472670    4.209025
C       0.309999   -1.994460    1.957080
O      -1.070587   -2.031217    2.206641
H       1.091328    1.840350    0.617227
H      -0.131683    2.038262   -0.650963
H      -0.618597    1.933844    1.048935
H      -1.025455   -0.326664   -0.052635
H       0.927885   -1.630341   -1.012538
H       2.043127   -0.234775   -0.620065
H       2.020026   -0.759788    4.596971
H       0.705384   -2.975978    1.660207
H      -1.197295   -2.444801    3.068225
