16

C       0.016455    1.392936   -0.033270
O       0.006878   -0.034379    0.019561
C       0.652233   -0.559552    1.094568
O       1.192630    0.122742    1.941150
N       0.611563   -1.924360    1.093497
C       1.255740   -2.641761    2.176700
C      -0.038103   -2.727727    0.075588
H       1.039184    1.775156   -0.083372
H      -0.532348    1.656824   -0.938252
H      -0.472321    1.819697    0.846244
H       0.528169   -3.258682    2.720149
H       2.041313   -3.304098    1.790106
H       1.697077   -1.918056    2.859437
H      -0.482576   -2.086947   -0.680968
H       0.686527   -3.397659   -0.406317
H      -0.824959   -3.350986    0.521201
