20

C       0.164522    1.485523    0.001317
C       0.154349   -0.028898   -0.033060
C      -0.126745   -0.609381   -1.406501
C       0.090753   -2.127784   -1.485668
C       0.033334   -2.743399   -0.106244
C       0.890968   -2.241113    1.025688
C      -0.610253   -2.090844    1.090808
N      -0.535976   -0.576860    1.167524
C       0.961557   -0.704564    1.017995
H       0.995845    1.881069   -0.592686
H      -0.769344    1.882866   -0.411191
H       0.260471    1.850580    1.026982
H      -1.168047   -0.359828   -1.648532
H       0.490558   -0.090538   -2.147688
H      -0.662578   -2.583327   -2.136737
H       1.066314   -2.355117   -1.931994
H      -0.079346   -3.825013   -0.084358
H       1.553132   -2.868893    1.606810
H      -1.348679   -2.577196    1.715901
H       1.624929   -0.151324    1.677292
