20

C      -0.046297    1.461992    0.007869
C       0.052923   -0.034386   -0.021259
C       0.705588   -0.954210   -1.078863
C       0.010206   -1.885705   -0.067298
C       0.610889   -1.001469    1.070932
O       0.005610   -0.990514    2.334417
C      -1.335047   -1.463924    2.290707
C      -2.050821   -0.931674    1.048712
N      -1.187053   -0.938840   -0.146171
H       0.952303    1.909739   -0.025904
H      -0.619363    1.831103   -0.848512
H      -0.533550    1.806240    0.926136
H       0.240989   -0.923691   -2.064594
H       1.796856   -0.978306   -1.115002
H      -0.104365   -2.969156   -0.123356
H       1.694390   -1.018827    1.228178
H      -1.330439   -2.564695    2.274232
H      -1.818965   -1.145432    3.218376
H      -2.940728   -1.538315    0.842760
H      -2.393093    0.098598    1.202664
