16

C       0.085873    1.474860    0.065165
C      -0.066999   -0.056856   -0.010701
C       0.723820   -0.665322   -1.215717
N       2.007531   -0.941231   -0.598551
C       1.876250   -1.143387    0.770028
O       2.713178   -1.564557    1.530072
N       0.578803   -0.749804    1.098257
C      -1.496083   -0.407516   -0.092136
N      -2.622755   -0.652703   -0.160360
H       1.148172    1.731293    0.048140
H      -0.413400    1.957028   -0.779798
H      -0.357612    1.858653    0.987940
H       0.222979   -1.569713   -1.583025
H       0.801370    0.053595   -2.035177
H       2.701918   -1.493427   -1.076540
H       0.406966   -0.461166    2.049333
