17

C      -0.020565   -0.875401   -0.815535
C      -0.048591    0.223968   -0.331370
C      -0.056919    1.555369    0.265426
C       1.348485    2.109085    0.436101
O       1.926935    2.801998   -0.675061
C       1.671031    3.545892    0.512307
C       0.691559    4.678708    0.433211
C       0.479381    5.408718   -0.825683
O      -0.508196    4.508689   -0.315203
H      -0.006531   -1.842650   -1.252917
H      -0.639256    2.252152   -0.341639
H      -0.537583    1.511308    1.252271
H       2.041143    1.422470    0.925493
H       2.567689    3.821738    1.074386
H       0.563926    5.217285    1.373631
H       0.205451    6.461638   -0.802612
H       0.995638    5.061749   -1.717474
