21

C      -0.139386    1.561982    0.120382
C       0.004753    0.029143    0.058416
C       0.630505   -0.498044    1.364064
C      -1.390848   -0.599591   -0.119076
C       0.854178   -0.390423   -1.162390
C       2.291917    0.097632   -1.243867
O       2.844899    0.799386   -0.424020
C       3.004500   -0.354510   -2.433478
C       3.579468   -0.735497   -3.420124
H       0.828450    2.046461    0.260222
H      -0.591369    1.952322   -0.799073
H      -0.790158    1.847896    0.953800
H      -0.007401   -0.246733    2.218319
H       0.732352   -1.589400    1.339117
H       1.617370   -0.064502    1.534722
H      -1.873698   -0.248420   -1.037978
H      -1.333847   -1.692941   -0.165796
H      -2.040613   -0.334828    0.721610
H       0.895497   -1.486935   -1.237835
H       0.365621   -0.068852   -2.093866
H       4.103750   -1.062141   -4.285328
