17

C      -0.355918    1.425924   -0.068544
C      -0.008222   -0.054940   -0.058451
C       1.227872   -0.505912   -0.808779
N       1.637344   -0.371506   -1.982141
O       1.808737   -1.130536    0.284041
C       0.723938   -0.697872    1.175124
C       1.249188    0.210762    2.275974
C       0.031274   -1.863518    1.733835
N      -0.537123   -2.762797    2.184587
H       0.497276    2.052909    0.200679
H      -0.669311    1.710761   -1.076488
H      -1.179882    1.641565    0.617958
H      -0.878657   -0.650282   -0.346267
H       2.544555   -0.817229   -2.126372
H       1.795625    1.049417    1.840663
H       0.424524    0.595661    2.882219
H       1.926521   -0.347667    2.926647
