20

C      -0.015428    1.567147   -0.135306
C      -0.008053    0.048290    0.004422
C       0.206752   -0.604813   -1.336950
C       0.246135   -1.928763   -1.433016
C       0.069359   -2.711993   -0.164655
N      -0.127331   -1.895451    1.036814
C       0.748460   -0.655252    1.197083
C      -0.332951   -0.158228    2.182816
C      -1.056390   -0.689196    0.924685
H       0.934875    1.910076   -0.561437
H      -0.807552    1.877131   -0.827188
H      -0.168732    2.100622    0.803474
H       0.325523    0.039649   -2.203762
H       0.397912   -2.450946   -2.373439
H      -0.790763   -3.391876   -0.244747
H       0.939147   -3.359416    0.016397
H       1.828099   -0.737212    1.346023
H      -0.455249   -0.778542    3.070352
H      -0.386013    0.906019    2.401962
H      -2.128138   -0.811637    0.748951
