17

O      -0.486943    0.084259   -0.262731
C      -0.283618    1.252094   -0.128783
O       0.946908    1.759673    0.084035
C       1.096736    3.169518    0.216908
C       1.882031    3.645369    1.472189
C       2.885903    4.374238    0.541624
O       4.053272    3.584674    0.266579
C       3.439951    3.006792   -0.913569
C       2.147122    3.819631   -0.713602
H      -1.067983    2.034019   -0.161708
H       0.116139    3.650003    0.126791
H       1.303384    4.281956    2.145649
H       2.349328    2.838566    2.039555
H       3.116034    5.423802    0.735329
H       3.999484    3.270957   -1.817970
H       3.341326    1.918614   -0.849155
H       1.785940    4.412085   -1.552856
