14

O      -0.002279    0.041122    0.051440
C      -0.001367    1.238346    0.022599
C      -1.189761    2.209215    0.027461
O      -0.823321    3.188806    0.937506
C       0.635456    3.230984    1.045888
C       1.133032    2.251457   -0.017938
N       1.073000    2.896044   -1.352912
C      -0.081103    3.078168   -1.846750
O      -1.290121    2.757527   -1.318837
H      -2.170143    1.800434    0.260902
H       0.964109    4.255714    0.859872
H       0.922810    2.924777    2.057572
H       2.125896    1.845016    0.164459
H      -0.199164    3.549580   -2.819571
