18

C       0.242773    1.732877    0.400803
C       0.066309    0.234718    0.502054
C       1.022382   -0.802103   -0.117061
C       2.447123   -0.330267    0.112911
O       3.400142   -0.066061   -0.562459
N       2.257514   -0.290643    1.513085
C       0.846834   -0.686854    1.392980
C       0.283411   -1.691230    2.366971
O      -1.005670   -2.146772    1.995103
H       1.282997    2.035790    0.547274
H      -0.068597    2.091561   -0.585184
H      -0.366905    2.247757    1.151549
H      -0.962570   -0.099890    0.375817
H       0.680092   -1.570672   -0.795496
H       2.584845    0.478585    2.087995
H       0.936400   -2.570053    2.389071
H       0.284001   -1.265001    3.382794
H      -1.644045   -1.469277    2.237487
