16

N      -0.088694    1.267574    0.010736
C      -0.024812    0.003788    0.003600
O       1.125607   -0.716279   -0.007115
C       0.873990   -2.171821   -0.013463
C       0.047944   -2.468563    1.227020
C      -1.082870   -1.768908    1.245681
C      -1.267550   -0.896562    0.006067
C      -1.097586   -1.755484   -1.244974
C       0.033310   -2.455249   -1.247210
H       0.852253    1.667433    0.007316
H       1.860061   -2.630331   -0.021762
H       0.402376   -3.137590    1.999928
H      -1.801832   -1.743571    2.054184
H      -2.166997   -0.287996    0.014661
H      -1.826049   -1.721483   -2.044607
H       0.378529   -3.115899   -2.031412
