17

O       0.007012   -0.020528    0.513525
C      -0.012632    1.110971    0.093255
C      -1.320503    1.852095   -0.170975
C      -1.148382    3.150440   -0.945226
C      -0.067571    3.263499   -2.060173
O      -0.083729    4.729538   -1.888378
C      -0.059009    4.174053   -0.520109
C       1.044295    3.177942   -0.973675
C       1.268947    1.884573   -0.204573
H      -1.994600    1.161900   -0.690572
H      -1.792294    2.047869    0.801635
H      -2.093322    3.624912   -1.217664
H      -0.075918    2.874633   -3.079453
H      -0.057066    4.879987    0.312079
H       1.969654    3.675871   -1.270381
H       1.760753    2.092433    0.755534
H       1.946434    1.211330   -0.741707
