18

C      -0.395760    1.477850   -0.003588
O      -0.079805    0.114237   -0.209427
C      -1.184024   -0.767514   -0.053683
C      -0.701624   -2.142897   -0.540324
N      -0.232973   -2.072357   -1.907645
C      -0.802461   -2.771384   -2.925988
O      -1.709187   -3.568372   -2.810035
C      -1.660639   -0.833452    1.331430
C      -2.040991   -0.905350    2.469247
H       0.521187    2.045351   -0.176286
H      -1.169151    1.821643   -0.707014
H      -0.746083    1.660403    1.020417
H      -2.011326   -0.435619   -0.702942
H       0.097448   -2.484528    0.126726
H      -1.518502   -2.864902   -0.508869
H       0.468808   -1.380113   -2.117222
H      -0.327230   -2.534078   -3.898405
H      -2.385029   -0.966519    3.472539
