19

C       0.071066    1.449745   -0.517729
C       1.509030    1.579458    0.062272
C       1.630744    2.267189    1.440312
O       1.997650    1.263129    2.385118
C       1.592141   -0.014186    1.943542
O       0.326205   -0.415721    2.420087
C      -0.698905   -0.070839    1.489702
C      -0.040862    0.023945    0.095135
C       1.479623    0.065927    0.413545
H      -0.663214    2.188543   -0.179818
H       0.066140    1.431568   -1.609975
H       2.275884    1.918734   -0.635039
H       2.409144    3.035848    1.463515
H       0.683126    2.742389    1.733157
H       2.313555   -0.723952    2.354622
H      -1.464727   -0.850359    1.545487
H      -1.170204    0.881620    1.772945
H      -0.391830   -0.758655   -0.578493
H       2.141640   -0.605209   -0.130346
