20

C       0.000745    1.422421   -0.142926
O       0.002628    0.034016    0.094619
C      -1.271441   -0.581826    0.055529
C      -1.752762   -0.788956   -1.381269
O      -0.900371   -1.691903   -2.093325
C      -0.377491   -2.708367   -1.364320
N      -0.457794   -2.932525   -0.124809
C      -1.160386   -1.962963    0.723514
C      -0.484113   -1.908816    2.093498
H       1.024643    1.773073    0.006537
H      -0.305619    1.680481   -1.167322
H      -0.662252    1.952035    0.559132
H      -2.008586    0.037795    0.592716
H      -2.776557   -1.185431   -1.376871
H      -1.750914    0.139223   -1.956991
H       0.176749   -3.378099   -2.019535
H      -2.186487   -2.331338    0.865114
H       0.536003   -1.532940    1.998177
H      -1.035000   -1.251781    2.775109
H      -0.449233   -2.912633    2.523413
