20

C      -0.005147    1.509455   -0.071952
C       0.136859    0.010337   -0.073754
N      -0.584861   -0.811633    0.927137
C       0.896272   -0.762768    0.946071
C       1.575470   -1.962331    0.290392
C       1.158013   -1.921843   -1.182443
C      -0.304899   -2.073178   -1.568395
C       0.303421   -0.704054   -1.421383
O       0.533736    0.097853   -2.543094
H       0.774727    1.975699   -0.679467
H      -0.973690    1.819517   -0.483091
H       0.066200    1.903480    0.947053
H      -0.946137   -0.203491    1.659627
H       1.380624   -0.275753    1.788153
H       2.662677   -1.848637    0.367227
H       1.307650   -2.901878    0.785744
H       1.886001   -2.211797   -1.931753
H      -0.482705   -2.406790   -2.585890
H      -1.021697   -2.401024   -0.826239
H      -0.321073    0.342544   -2.913698
