17

O      -0.130286    1.524556   -0.260767
C       0.005986    0.123217   -0.245902
C      -1.322422   -0.581357    0.065585
C      -1.305435   -2.127688    0.041974
C      -2.488590   -2.570504    0.931422
C      -2.600673   -1.492093    1.997754
O      -3.143582   -1.542573    3.066658
C      -1.841750   -0.243273    1.452004
O      -1.680306    0.780839    2.069242
H      -0.475011    1.775147    0.607137
H       0.359199   -0.175888   -1.238685
H       0.764015   -0.209790    0.483323
H      -2.075220   -0.211137   -0.647210
H      -1.369349   -2.526436   -0.972170
H      -0.363722   -2.487974    0.473089
H      -3.426120   -2.568411    0.358529
H      -2.384439   -3.562736    1.375085
