19

C       0.258826    1.057828    0.322707
O      -0.413811    0.031880   -0.382197
C       0.375548   -0.582765   -1.339355
C       1.445535   -1.631928   -0.983067
C       1.383866   -2.232664    0.376633
C       0.229893   -2.871867    0.585266
C      -0.663051   -2.839631   -0.633367
C       0.134651   -2.021747   -1.657768
O       0.140141   -2.440556   -2.989140
H       1.126838    0.663677    0.868256
H       0.601852    1.854400   -0.354380
H      -0.454096    1.479523    1.034879
H       0.643303    0.048190   -2.190201
H       2.375435   -1.588580   -1.539365
H       2.184838   -2.126633    1.099196
H      -0.064879   -3.354173    1.510036
H      -0.853583   -3.842924   -1.035689
H      -1.635294   -2.382111   -0.414309
H      -0.665409   -2.116119   -3.407076
