15

O      -0.016241   -0.001284   -0.058205
C      -0.030768    1.187951    0.044481
C      -1.076771    2.313528    0.043775
O      -0.831740    2.905150    1.307285
C       0.617828    3.234934    1.187955
C       0.607022    4.629763    0.610568
C       0.167950    4.515731   -0.649789
C      -0.018285    3.065436   -0.949992
C       0.999621    2.319736   -0.005076
H      -2.138281    2.213268   -0.163260
H       1.096830    3.061417    2.148992
H       0.740972    5.535136    1.187000
H      -0.119112    5.316132   -1.319630
H      -0.078408    2.731081   -1.983388
H       2.050608    2.198410   -0.253109
