25

C       0.103473    1.554898   -0.103749
C       0.019160    0.033970    0.097837
C       0.812512   -0.377727    1.348461
C      -1.459632   -0.478642    0.078156
C      -2.266347    0.015020    1.279709
O      -2.118774    0.032958   -1.083380
C      -1.490334   -2.029445   -0.025421
C      -2.897451   -2.623768   -0.004868
O      -0.844005   -2.324259   -1.272612
H       1.140107    1.852020   -0.293882
H      -0.510678    1.872071   -0.948272
H      -0.230060    2.103863    0.784264
H       0.499834   -0.438564   -0.766542
H       0.396714    0.072563    2.256452
H       0.845149   -1.461309    1.493945
H       1.848267   -0.032852    1.262422
H      -2.158233    1.095688    1.396194
H      -3.327718   -0.194873    1.133631
H      -1.939272   -0.463822    2.207082
H      -1.741847   -0.458526   -1.825602
H      -0.906864   -2.459832    0.800374
H      -3.531040   -2.126237   -0.743353
H      -2.857659   -3.695336   -0.236360
H      -3.360546   -2.526358    0.980271
H      -1.051639   -3.231715   -1.512937
