23

C      -0.495367    1.528963    0.014655
C       0.012258    0.104315   -0.001166
C      -1.041046   -1.037569    0.125276
C      -0.261643   -1.645103    1.329889
C       0.830098   -0.554288    1.182924
C       1.944408   -0.882108    0.182491
C       3.419760   -0.766099    0.431476
C       2.800459   -2.115352    0.146336
C       1.174360   -0.236304   -0.982051
H       0.328055    2.246969    0.102599
H      -1.040177    1.761820   -0.909280
H      -1.180215    1.700782    0.853117
H      -2.040734   -0.678965    0.386546
H      -1.132991   -1.679433   -0.755853
H      -0.812777   -1.578639    2.271518
H       0.087259   -2.674740    1.211715
H       1.123205   -0.007826    2.082907
H       4.033580   -0.309948   -0.339625
H       3.753628   -0.562448    1.444435
H       2.717792   -2.822330    0.966479
H       2.995696   -2.574962   -0.817709
H       0.907073   -0.896573   -1.814303
H       1.668123    0.651276   -1.392436
