17

C      -0.076243   -1.253525   -0.129860
C      -0.039248   -0.053028   -0.057844
C      -0.006762    1.393538    0.017067
C       0.027319    2.085697    1.412864
C       1.541014    1.688240    1.592512
C       2.214573    2.847651    2.308060
C       1.650190    3.930252    1.768152
C       0.667288    3.364152    0.756674
C       1.367852    2.124157    0.088680
H      -0.108948   -2.312825   -0.193298
H      -0.717250    1.836245   -0.689333
H      -0.751738    2.060099    2.179010
H       1.803814    0.658744    1.828654
H       2.973364    2.773102    3.074056
H       1.822841    4.977238    1.973342
H       0.049665    4.028389    0.150718
H       2.143595    2.143166   -0.681011
