19

C       0.051838    1.500445    0.013519
C       0.014916   -0.036416    0.003528
C       0.788023   -0.666411   -1.207065
C       1.325207   -1.994176   -0.690383
N       2.556387   -1.836361    0.111513
C       1.256450   -2.002177    0.794460
C       0.673156   -0.679778    1.273539
C      -1.384669   -0.487082   -0.063707
N      -2.483602   -0.843497   -0.116546
H       1.091211    1.837741    0.063464
H      -0.404096    1.912127   -0.891223
H      -0.485956    1.902600    0.876632
H       0.135781   -0.787150   -2.074650
H       1.616155   -0.009944   -1.490052
H       1.190761   -2.897151   -1.275783
H       3.062844   -2.719085    0.130208
H       1.068931   -2.911328    1.355186
H       1.471267   -0.026804    1.638886
H      -0.056409   -0.809516    2.075788
