21

C       0.125763    1.528565   -0.234935
C      -0.082599    0.032342    0.042229
C       0.661766   -0.450561    1.245295
C       2.118118   -0.737132    1.534772
C       2.129897    0.164698    2.767211
C       0.588801   -0.048606    2.781152
O      -0.287443    0.924776    3.242065
C       0.412831   -1.554025    3.132918
C       1.041206   -1.816926    1.765636
H       1.181761    1.749023   -0.423064
H      -0.447849    1.850245   -1.109858
H      -0.195623    2.126794    0.622695
H      -1.154908   -0.166806    0.170913
H       0.233366   -0.557093   -0.828599
H       2.913870   -0.892981    0.817233
H       2.698116   -0.145705    3.653219
H       2.375949    1.197036    2.503785
H      -0.153864    1.035119    4.190392
H       0.909661   -1.933151    4.034798
H      -0.645980   -1.827464    3.143263
H       1.060374   -2.746580    1.210866
