19

C      -0.065761    1.425973   -0.021260
O      -0.005781    0.006348    0.000489
C      -1.198008   -0.631551    0.005772
C      -1.347083   -2.000525    0.025999
C      -0.347488   -3.102982    0.046492
N      -2.726248   -2.183944    0.023335
C      -3.420627   -3.452138    0.041488
C      -3.296677   -0.952038    0.002806
N      -2.398560    0.014590   -0.008709
H       0.970614    1.768993   -0.022699
H      -0.581685    1.790217   -0.916203
H      -0.588116    1.817138    0.858466
H      -0.429770   -3.736430    0.939531
H      -0.422152   -3.762388   -0.828251
H       0.653071   -2.664891    0.044334
H      -3.176559   -4.023691    0.943007
H      -4.496246   -3.266038    0.028487
H      -3.161040   -4.057075   -0.833449
H      -4.368351   -0.818853   -0.003294
