18

C      -0.538790    1.242888    0.270516
N      -0.109558   -0.143947    0.402691
C       1.111639   -0.672076   -0.138969
C       2.303913    0.291797   -0.019771
C       2.135679    0.293251    1.533731
N       2.122266    1.552029    2.239442
C       0.866197   -0.611338    1.367365
C       0.489648   -1.633527    2.297269
N       0.233819   -2.436308    3.090847
H       0.267275    1.978312    0.152007
H      -1.183073    1.312657   -0.611084
H      -1.136995    1.510193    1.146160
H       1.059321   -1.545057   -0.779809
H       3.249690   -0.148501   -0.338655
H       2.186799    1.258014   -0.516138
H       2.923384   -0.325168    1.972633
H       1.303449    2.105191    2.018025
H       2.121106    1.403686    3.243183
