19

C       0.135384   -1.179705   -0.131725
C       0.089859    0.021059   -0.065980
C       0.021057    1.457905    0.001269
C       0.428420    2.114598    1.316416
C       1.339711    2.213767    0.130181
C      -1.090664    2.109474   -0.798300
C      -1.279924    1.722692   -2.284229
O      -2.678595    1.441321   -2.073991
C      -2.538389    1.585741   -0.646007
H       0.177595   -2.239174   -0.188114
H      -0.127757    2.996060    1.616957
H       0.714670    1.459487    2.130074
H       2.249833    1.626550    0.131737
H       1.412782    3.163706   -0.388384
H      -1.031431    3.192561   -0.662259
H      -1.124904    2.514956   -3.025611
H      -0.722906    0.826709   -2.586437
H      -2.611653    0.621166   -0.127729
H      -3.274832    2.280991   -0.226911
