17

C       0.066639    1.381089    0.109878
N       0.177486   -0.063014    0.135640
C       0.462291   -0.645901   -0.949146
N       0.593415   -2.041796   -1.033596
C       0.392359   -2.847028    0.179802
C       0.906156   -2.566110   -2.268339
O       1.073039   -1.898783   -3.275585
C       1.066403   -4.083668   -2.441990
O       0.951933   -4.938844   -1.606601
H       0.778963    1.813389    0.821755
H       0.248468    1.824086   -0.881108
H      -0.934304    1.675161    0.445589
H       0.633338   -0.156282   -1.909346
H      -0.431077   -3.549557    0.048232
H       1.292507   -3.411161    0.425609
H       0.161087   -2.145428    0.978915
H       1.315742   -4.295004   -3.501517
