21

C      -0.135005    1.464331   -0.133734
C      -0.073389   -0.023508    0.100707
O       1.200294   -0.665038   -0.025314
C       0.559939   -0.674358    1.262640
C       1.250465    0.057606    2.364552
C       0.782334    0.091922    3.799072
C       0.188362   -1.252129    4.246540
C       1.532135   -1.955504    3.863435
C       2.099728   -0.598220    3.427421
H       0.679386    1.993130    0.364929
H      -0.069597    1.679245   -1.205594
H      -1.086680    1.866774    0.230326
H      -0.884329   -0.578868   -0.377968
H       0.164395   -1.653193    1.533620
H       1.673656    1.006153    2.047316
H       0.624976    1.036353    4.307156
H       0.006537   -1.285985    5.322795
H      -0.721696   -1.584340    3.737279
H       2.043297   -2.358483    4.740061
H       1.494087   -2.739411    3.100718
H       3.116401   -0.265881    3.601069
