21

C      -0.162665    1.338141   -0.071561
C       1.210642    0.717549   -0.106774
O       1.999086    0.759825    1.053889
C       1.208947    0.254536    2.129127
C       0.148791   -0.689354    1.529083
C       0.391023   -2.232327    1.578296
C      -1.095991   -2.426214    1.977447
C      -1.165718   -0.916071    2.331563
C       0.013976   -0.162807    0.108833
H      -0.446747    1.946955    0.780354
H      -0.578565    1.672309   -1.016097
H       1.810983    0.732024   -1.008543
H       1.879996   -0.243958    2.835292
H       0.715433    1.081727    2.662688
H       0.737836   -2.709044    0.657485
H       1.074242   -2.507322    2.387466
H      -1.724502   -2.675090    1.118145
H      -1.311058   -3.138380    2.777131
H      -1.020931   -0.739370    3.402780
H      -2.043850   -0.353520    2.003975
H      -0.356687   -0.831999   -0.659572
