19

O       0.005878    1.367539   -0.334309
C       0.049923   -0.034870   -0.115258
C       0.491469   -0.464740    1.295460
C      -0.478917   -1.626087    1.624510
N      -1.647546   -1.462670    0.751939
C      -1.356075   -0.622231   -0.163780
N      -2.175571   -0.326184   -1.240334
C      -2.841355    0.969176   -1.352346
C      -3.616422   -0.278165   -1.073494
H       0.907176    1.679356   -0.457161
H       0.655166   -0.518614   -0.898314
H       1.545553   -0.746014    1.360355
H       0.319189    0.382068    1.967597
H      -0.019852   -2.603968    1.426119
H      -0.792860   -1.636763    2.673320
H      -2.702823    1.673351   -0.538358
H      -2.842604    1.406999   -2.346044
H      -4.192388   -0.746590   -1.865936
H      -3.996256   -0.431910   -0.067773
