14

C      -0.071740   -1.231707   -0.002497
C      -0.039474   -0.027573    0.004467
C       0.014579    1.379339    0.016676
C      -0.755336    2.468090    0.795682
C       0.549064    3.123573    1.248053
C       1.166922    2.475020   -0.014245
O       0.508973    3.163711   -1.113119
C      -0.680544    2.485289   -0.732095
H      -0.102259   -2.292719   -0.013885
H      -1.683848    2.341564    1.336434
H       0.601594    4.215012    1.302922
H       0.927165    2.667785    2.165935
H       2.232753    2.325101   -0.165778
H      -1.524460    2.467671   -1.408143
