16

C       0.015557    1.429099    0.126613
C       1.480971    1.899833   -0.092026
C       2.245623    0.599461   -0.032134
N       3.539326    0.408407    0.066451
C       3.925340   -0.890471    0.070461
C       3.015250   -1.930219   -0.018171
N       1.681854   -1.744077   -0.117191
C       1.325538   -0.471301   -0.129103
N       0.041033    0.006360   -0.253958
H      -0.273766    1.552178    1.180186
H      -0.699700    1.982300   -0.486821
H       1.599533    2.363143   -1.079072
H       1.806037    2.629318    0.652542
H       4.989203   -1.085218    0.155981
H       3.356210   -2.961841   -0.004795
H      -0.721596   -0.595310    0.018546
