17

O      -0.636365    0.613559    0.606595
C       0.164977    0.914892   -0.238804
C       1.246759    1.967729   -0.072234
C       1.228177    2.974548   -1.180514
C       0.161646    4.035942   -1.611031
C       0.626046    3.917764   -3.055185
C       1.270317    4.938805   -2.129394
C       2.334036    3.882970   -1.705491
C       1.690005    2.861576   -2.633549
H       0.160845    0.425416   -1.240074
H       1.131005    2.432741    0.912803
H       2.215780    1.446181   -0.087879
H      -0.812619    4.291621   -1.216279
H       0.070779    4.067495   -3.970955
H       1.302426    6.017168   -2.203492
H       3.361685    3.964295   -1.376222
H       2.139410    2.024683   -3.152019
