20

C      -0.073421    1.539993    0.018708
C       0.030751    0.022947    0.068797
C      -1.201811   -0.652765   -0.509844
N       1.258312   -0.716304   -0.277734
C       2.435596    0.120993    0.132706
C       1.959907    0.059741    1.594263
O       2.466918    0.284926    2.656847
C       0.733871   -0.710462    1.181314
C       0.214530   -1.878697    1.967620
H       0.723693    2.062111    0.548961
H      -0.081318    1.884540   -1.021852
H      -1.020023    1.849782    0.472823
H      -1.421221   -0.227463   -1.494983
H      -1.044033   -1.724333   -0.639043
H      -2.077418   -0.492356    0.127983
H       3.362464   -0.445913    0.004198
H       2.532087    1.086661   -0.368487
H      -0.099705   -1.529785    2.957178
H      -0.638807   -2.362232    1.489624
H       0.998739   -2.627628    2.116648
