17

C       0.288220    1.583676   -0.156657
C       0.222350    0.080365    0.019404
O       0.519162   -0.467033    1.054326
C      -0.251862   -0.720171   -1.196835
C      -0.114280   -2.203476   -0.968968
C       0.332813   -3.119709   -2.043796
O       1.207911   -2.748709   -0.991965
C      -1.008650   -2.809073    0.074195
O      -2.063849   -2.334060    0.405539
H       1.037674    1.839053   -0.914864
H      -0.671655    1.972747   -0.513741
H       0.552418    2.056843    0.789450
H      -1.306723   -0.475345   -1.372511
H       0.303809   -0.404638   -2.086127
H       0.009941   -4.160345   -2.043940
H       0.551830   -2.699466   -3.024600
H      -0.615480   -3.762201    0.489715
