19

C       0.064729    1.541124    0.132184
C      -0.013539    0.046112    0.035467
C       0.743453   -0.705807   -1.087213
C       0.505584   -2.167016   -0.584023
C      -0.318221   -1.816131    0.671473
O       0.426015   -0.690411    1.233314
C      -1.305586   -0.779636    0.139537
C      -2.667520   -0.431117    0.498273
O      -2.322972   -0.938279   -0.816237
H       1.106461    1.868758    0.208119
H      -0.370054    1.998025   -0.762694
H      -0.476235    1.905148    1.009865
H       0.311034   -0.515279   -2.072924
H       1.799607   -0.427304   -1.102088
H      -0.057040   -2.781066   -1.291749
H       1.431734   -2.681991   -0.321804
H      -0.571463   -2.593564    1.390869
H      -3.261046   -1.106797    1.111743
H      -2.979059    0.611782    0.520479
