16

O      -0.010344    1.295425   -0.302260
C      -0.049945   -0.114364   -0.105047
C      -1.510125   -0.463330    0.145346
O      -1.992273    0.250585    1.257534
C      -2.395950   -0.398926   -1.150760
C      -2.402910   -1.932970   -1.147800
O      -2.702468   -2.766762   -1.952217
C      -1.779788   -1.988083    0.255891
H       0.904677    1.588698   -0.277582
H       0.333568   -0.655725   -0.982994
H       0.542923   -0.410591    0.772393
H      -1.665259    1.153946    1.152937
H      -3.387235    0.007116   -0.925855
H      -1.992622    0.099143   -2.035309
H      -0.929880   -2.661136    0.398883
H      -2.530660   -2.191052    1.026155
