19

O       0.484992    0.519019   -1.132802
C      -0.013660   -0.370217   -0.169470
C       0.311932   -0.153424    1.340796
C      -1.173277   -0.456887    1.691435
C      -2.023165    0.825475    1.944237
C      -2.214214    0.960016    0.393068
C      -1.528290   -0.412344    0.159998
C      -3.315036    0.536301    2.657607
O      -3.698379    1.095762    3.652845
H       0.279366    1.417811   -0.855258
H       0.317550   -1.361194   -0.493754
H       1.055746   -0.831831    1.763475
H       0.614229    0.871828    1.579812
H      -1.355412   -1.323248    2.327854
H      -1.513438    1.643954    2.458259
H      -3.258802    1.000347    0.074116
H      -1.709094    1.824090   -0.048740
H      -2.131695   -1.163468   -0.350793
H      -3.924696   -0.272413    2.185696
