19

C      -0.020197    1.523181    0.012743
C      -0.003374    0.016286    0.008924
C      -0.086976   -0.710270   -1.177279
N      -0.075190   -2.044305   -1.233512
C       0.024012   -2.742369   -0.104030
C       0.047126   -4.244609   -0.212277
C       0.111597   -2.109611    1.156849
N       0.273291   -2.862573    2.321539
C       0.093761   -0.716343    1.190823
H       0.903100    1.933652    0.437308
H      -0.124600    1.917170   -1.001712
H      -0.850754    1.914581    0.611090
H      -0.167664   -0.190333   -2.129596
H       0.949641   -4.667666    0.245925
H      -0.815305   -4.706323    0.289407
H       0.017510   -4.528415   -1.264771
H      -0.135950   -3.784907    2.294867
H       0.028089   -2.376625    3.172422
H       0.158927   -0.202616    2.147762
