16

N      -0.109354   -1.201486    0.267866
C      -0.055208   -0.053834    0.140696
C      -0.005460    1.408799   -0.021999
N      -0.595453    2.113158    1.125812
C       0.470297    2.664304    1.836084
N       1.611251    2.664197    1.268845
C       1.439921    1.987381    0.003965
C       2.611686    1.300865   -0.634730
C       2.076446    2.581831   -1.226951
H      -0.528536    1.661828   -0.949850
H      -1.336501    1.652650    1.634919
H       0.275663    3.111543    2.805369
H       3.545852    1.342946   -0.087587
H       2.429210    0.370135   -1.161250
H       1.525636    2.526471   -2.160619
H       2.648323    3.490768   -1.082769
