11

C       0.111318   -1.170735   -0.005558
C       0.017418    0.030147    0.002541
C      -0.107271    1.429755    0.012109
C      -1.194731    2.261675    0.031637
C      -0.687414    3.594342    0.032200
C       0.668442    3.478752    0.013036
O       1.042496    2.178479    0.000622
H       0.193876   -2.229288   -0.012726
H      -2.226048    1.947886    0.043955
H      -1.254560    4.511468    0.045101
H       1.473599    4.195047    0.006073
