14

O       0.038194    0.068298    0.021875
C       0.003712    1.261278   -0.045715
C      -1.072325    2.302136   -0.028853
N      -0.140493    3.250817    0.713809
C       1.027204    2.391572    0.101300
C       0.922271    3.189883   -1.210795
C      -0.490741    3.516470   -0.723353
C      -1.318426    4.597595   -1.144272
C      -1.996877    5.509941   -1.535054
H      -2.127368    2.228173    0.199725
H       1.956926    2.263913    0.648093
H       1.538385    4.091314   -1.190032
H       1.056647    2.659119   -2.156913
H      -2.599348    6.318012   -1.870346
