15

O      -0.150562    0.121373    0.260374
C      -0.152498    1.304309    0.151479
C      -1.175325    2.394705   -0.159260
C       0.088460    3.115605   -0.780228
C       0.444127    3.540469    0.580166
N       0.987025    2.222688    0.057965
C      -0.975758    3.317982    1.060512
C      -1.933329    4.297878    1.602326
N      -1.432567    3.166106    2.422717
H      -2.149405    2.195458   -0.597617
H       0.349735    3.425313   -1.780141
H       1.186625    4.246311    0.927405
H      -1.597128    5.278051    1.929927
H      -2.955654    4.267874    1.233701
H      -2.131281    2.431148    2.503097
