22

C      -0.159109    1.534218   -0.005041
C      -0.048289    0.006791   -0.016193
C      -1.389643   -0.607332   -0.410693
C       1.199945   -0.471967   -0.794010
O       1.926005   -0.726232    0.420891
C       0.716936   -0.601206    1.227075
C       0.962637    0.281764    2.443337
C       0.251902   -1.990218    1.668115
H       0.806176    2.013157    0.178389
H      -0.522753    1.887867   -0.976466
H      -0.863393    1.883223    0.757999
H      -1.705739   -0.227737   -1.389084
H      -1.350340   -1.696908   -0.478548
H      -2.173843   -0.342365    0.307876
H       1.045804   -1.388440   -1.382226
H       1.701361    0.271616   -1.425258
H       1.363243    1.257878    2.166864
H       0.037893    0.430479    3.011531
H       1.688168   -0.203063    3.104783
H       0.980078   -2.410909    2.368594
H      -0.719877   -1.946963    2.171556
H       0.171942   -2.676805    0.822086
