17

C       0.035792    1.367513   -0.308770
N      -0.242508    0.282315    0.639849
C      -1.251688   -0.603507    0.300204
C      -1.319225   -1.896668   -0.108972
O      -0.284084   -2.724903   -0.385271
N      -2.632395   -2.307964   -0.192565
C      -3.323083   -1.257438    0.142911
C      -4.800052   -1.105202    0.183218
O      -2.564414   -0.188511    0.469302
H       0.821332    2.006151    0.103767
H       0.348351    1.013325   -1.302466
H      -0.864535    1.975627   -0.427851
H       0.597202   -0.223662    0.889127
H      -0.669941   -3.579985   -0.607870
H      -5.140929   -0.802445    1.178815
H      -5.138861   -0.341720   -0.525733
H      -5.261464   -2.058253   -0.077025
