17

O       0.001423   -0.047465    0.135394
C       0.032988    1.147716   -0.044037
C       1.292044    1.938915   -0.044683
C       2.606766    1.204028    0.193637
O       3.546878    2.289927    0.117210
C       2.715411    3.394740   -0.131607
C       1.586780    3.038830   -1.148138
C       0.658269    4.039188   -0.427139
C       1.408334    3.324627    0.717193
H      -0.904052    1.718333   -0.220721
H       2.657223    0.723826    1.176422
H       2.824749    0.455489   -0.575242
H       3.290693    4.315991   -0.217728
H       1.689452    2.848607   -2.216958
H       0.889646    5.098723   -0.567341
H      -0.416367    3.871889   -0.504314
H       1.305770    3.463191    1.793940
