21

C       0.160822    1.703994    0.035835
C       0.029472    0.169413   -0.006538
C       0.634319   -0.466338   -1.218466
C       0.087343   -0.863020   -2.419626
C      -1.337679   -0.790240   -2.867173
N       1.063508   -1.377882   -3.247260
C       2.178131   -1.294169   -2.563076
N       1.990634   -0.749162   -1.327302
C       3.012254   -0.558033   -0.320414
H       1.209324    2.018748    0.032206
H      -0.320826    2.156246   -0.835950
H      -0.308043    2.111143    0.937580
H       0.468500   -0.257380    0.904765
H      -1.032084   -0.097055    0.024228
H      -2.000365   -0.475722   -2.055986
H      -1.460382   -0.080254   -3.693300
H      -1.680489   -1.764795   -3.230142
H       3.155888   -1.612338   -2.896773
H       3.131678    0.499505   -0.064452
H       2.777373   -1.112737    0.593889
H       3.962463   -0.927551   -0.710962
