22

C      -1.511896    0.484572   -0.474719
C      -0.117685    0.019752   -0.012408
C       0.668690   -0.606414   -1.139628
C       0.715147   -2.107318   -1.273579
C       1.662094   -2.758754   -0.263052
O       1.537938   -4.157702   -0.387190
C       2.385072   -4.861809    0.488081
N       1.303290    0.052511   -2.033822
O       1.206270    1.442674   -1.834249
H      -1.419096    1.240630   -1.257460
H      -2.098270   -0.350274   -0.871779
H      -2.068299    0.918133    0.361647
H       0.436943    0.878690    0.375716
H      -0.223430   -0.705257    0.801091
H      -0.287562   -2.524373   -1.117533
H       1.037095   -2.373372   -2.282950
H       2.698184   -2.438561   -0.462645
H       1.418633   -2.443042    0.766336
H       3.446908   -4.634579    0.302208
H       2.166642   -4.631198    1.543316
H       2.217849   -5.928347    0.318767
H       1.730876    1.785421   -2.564994
