17

O       0.382221   -0.066117   -0.970767
C      -0.457874   -0.421230    0.107373
C      -1.738922    0.401411    0.125847
O      -2.415421    0.219216   -1.138962
C      -3.404186   -0.692678   -1.189628
O      -3.841607   -1.302060   -0.247199
C      -3.921344   -0.863175   -2.589057
C      -4.009147    0.275410   -3.523513
O      -2.987625   -0.701722   -3.656242
H      -0.140893   -0.160850   -1.775447
H      -0.717466   -1.491321    0.089689
H       0.103373   -0.231334    1.028581
H      -2.401243    0.106983    0.942382
H      -1.512629    1.468640    0.177820
H      -4.613989   -1.695354   -2.684563
H      -4.781624    0.259638   -4.290392
H      -3.677156    1.256351   -3.192598
