15

C      -0.024144   -1.147075   -0.023456
C      -0.036564    0.056161   -0.012109
C      -0.019131    1.473230    0.008864
O      -1.089407    2.209319    0.616807
C      -0.766198    3.358164   -0.229061
C       0.127118    4.266905    0.600573
O       1.269452    3.444336    0.892912
C       1.241361    2.360608    0.007305
C       0.220788    2.519839   -1.071671
H      -0.019171   -2.208979   -0.031063
H      -1.648520    3.803012   -0.688488
H       0.432129    5.169111    0.049172
H      -0.346690    4.554508    1.542881
H       2.205008    1.897782   -0.163240
H       0.334443    2.455768   -2.144646
