15

O      -0.097637   -0.035885    0.142597
C      -0.069486    1.156914    0.103039
C      -1.157824    2.273617    0.081471
C      -0.003966    3.254579   -0.167076
O       0.867374    3.138816    0.954245
C       1.039065    2.191852   -0.126559
C       2.370440    2.061661   -0.757030
C       3.026187    0.748383   -0.863669
O       2.390889    1.349440   -1.994654
H      -1.832772    2.129635   -0.767697
H      -1.731010    2.437367    0.995749
H       0.006115    4.178253   -0.731879
H       2.979467    2.964630   -0.723690
H       4.112804    0.702446   -0.907768
H       2.520929   -0.126617   -0.461928
