18

N       0.091240    0.769770    1.263082
C      -0.011805   -0.087985    0.356389
C      -1.166402   -0.719970   -0.392229
C      -0.057249   -1.513891   -1.115456
C       0.137650   -1.285625   -2.602663
C       1.452274   -1.840459   -3.102192
C       1.560680   -3.184904   -3.684641
O       1.571575   -2.020690   -4.512766
O       0.958075   -0.808465   -0.314779
H       1.068177    0.931240    1.513628
H      -1.852189   -1.299948    0.226738
H      -1.734686   -0.029793   -1.018991
H      -0.027630   -2.579736   -0.868118
H      -0.686484   -1.758923   -3.149493
H       0.092145   -0.209274   -2.809928
H       2.338407   -1.418720   -2.627869
H       2.502424   -3.728395   -3.626690
H       0.670701   -3.808279   -3.769078
