21

C       0.044655    1.581349   -0.181100
C      -0.020559    0.053675   -0.119474
C      -1.443743   -0.471509    0.117811
C      -1.517300   -1.970292    0.200498
C      -1.586911   -2.884852   -1.015509
C      -2.713296   -2.841723    0.003779
O      -2.711565   -3.796778    1.036125
C      -1.413712   -3.763305    1.602551
O      -0.854362   -2.492137    1.338585
H       1.068455    1.929387   -0.349273
H      -0.577896    1.974519   -0.993059
H      -0.310185    2.031138    0.752962
H       0.367810   -0.373684   -1.052510
H       0.628973   -0.316369    0.681466
H      -1.843231   -0.051017    1.049631
H      -2.103440   -0.134601   -0.691550
H      -1.782157   -2.408233   -1.970870
H      -0.951748   -3.761760   -1.073080
H      -3.710232   -2.499246   -0.243908
H      -1.485807   -3.912987    2.684852
H      -0.787011   -4.555177    1.159842
