21

C      -0.372658    1.518731    0.315736
C      -0.011109    0.043509    0.230940
C       1.291870   -0.450901   -0.500522
C       2.094973    0.060487    0.732132
C       0.856973   -0.667479    1.328084
C       1.097886   -1.797275    0.252871
O      -0.017562   -2.547587   -0.170832
C       2.258363   -2.776547    0.412080
O       1.783089   -3.808814    1.285234
H       0.460966    2.176813    0.573033
H      -0.777337    1.861923   -0.643187
H      -1.154877    1.670703    1.068180
H      -0.894235   -0.531267   -0.044475
H       1.544321   -0.330434   -1.556634
H       3.082890   -0.362161    0.915346
H       2.130670    1.140129    0.865112
H       0.611448   -0.803158    2.383053
H       0.019817   -3.366045    0.341678
H       2.499714   -3.190105   -0.577712
H       3.160780   -2.316795    0.824921
H       2.363458   -4.570144    1.201863
