18

C      -0.821773    1.186469   -0.091187
C      -0.016035   -0.106956   -0.056288
C       1.058602   -0.246105   -1.173232
O       1.655671    0.979313   -1.582181
C       2.071658   -1.179113   -0.549234
C       1.938502   -1.249473    0.773373
C       0.765008   -0.411996    1.268003
C       1.251912    0.788026    1.957578
N       1.656711    1.737981    2.478687
H      -0.178184    2.062901    0.008374
H      -1.355064    1.273158   -1.042432
H      -1.561362    1.211890    0.715245
H      -0.696107   -0.957443   -0.180434
H       0.609880   -0.647354   -2.087255
H       2.201976    1.304229   -0.856722
H       2.852234   -1.657737   -1.129136
H       2.580894   -1.788906    1.459045
H       0.131957   -0.960347    1.974653
