21

N       0.036403    1.516907   -0.036624
C       0.007629    0.053623   -0.097019
C      -1.427121   -0.487560    0.063876
C      -2.072423   -0.140632    1.400536
C      -2.666327    1.273164    1.658655
C      -3.843933    0.599935    2.412553
C      -3.479794   -0.731452    1.701770
C       0.618748   -0.481807   -1.335501
N       1.098263   -0.857134   -2.318805
H       0.991937    1.852138   -0.115026
H      -0.470044    1.902564   -0.829089
H       0.608779   -0.318657    0.742082
H      -2.043883   -0.111401   -0.763370
H      -1.390623   -1.577507   -0.052800
H      -1.384940   -0.403136    2.214478
H      -2.045771    1.994137    2.192308
H      -3.002137    1.734320    0.723967
H      -3.659405    0.546208    3.489515
H      -4.847512    1.000876    2.253872
H      -4.056634   -0.863635    0.779901
H      -3.530951   -1.659262    2.277318
