16

C       0.065587    1.469030   -0.053947
C      -0.072350   -0.008190    0.022316
C      -1.110835   -0.867294   -0.133617
C      -0.588572   -2.191794    0.060569
C       0.737930   -2.027373    0.332344
O       1.068408   -0.715439    0.312735
C      -1.395995   -3.431238    0.002789
N      -0.681040   -4.608306   -0.035829
O      -2.612972   -3.411886    0.021652
H       0.772166    1.767295   -0.836634
H      -0.904023    1.918175   -0.278243
H       0.427990    1.886881    0.891895
H      -2.136127   -0.624139   -0.359869
H       1.535249   -2.706800    0.587089
H       0.256356   -4.606207   -0.403272
H      -1.228883   -5.436031   -0.215417
