13

O      -0.888760    1.290669    0.079980
C       0.228169    0.963263   -0.222695
C       1.436966    1.904165   -0.333617
O       2.494793    1.390473   -0.655181
C       1.272143    3.324810   -0.058645
C       2.301765    4.259003   -0.130820
N       1.758623    5.440808    0.189599
N       0.432489    5.371177    0.473583
C       0.134030    4.091250    0.324606
H       0.513621   -0.083077   -0.461515
H       3.342499    4.136680   -0.383443
H       2.215822    6.336654    0.238363
H      -0.870828    3.739803    0.489649
