21

C      -1.107683    0.988689   -0.059139
C       0.003672   -0.041549    0.061135
C       1.250699    0.098400   -0.866575
C       2.125632   -0.237506    0.350506
C       3.089146   -1.360759    0.452227
C       3.592114    0.076967    0.602348
C       4.399882    0.648418   -0.492970
O       5.271869    1.472023   -0.356223
C       0.952164    0.029541    1.299190
H      -0.710730    2.006595    0.027745
H      -1.618661    0.911376   -1.025270
H      -1.859582    0.855641    0.726633
H      -0.409977   -1.051361   -0.027829
H       1.313035   -0.569062   -1.730127
H       1.384691    1.129887   -1.209975
H       3.099143   -1.972939    1.347966
H       3.367291   -1.886128   -0.457524
H       3.864888    0.419765    1.595401
H       4.139071    0.251050   -1.503422
H       0.985342    1.037371    1.727250
H       0.786966   -0.689835    2.105880
