17

O       0.154211    1.474773   -0.123616
C       0.049081    0.096390   -0.010550
C       0.116759   -0.622488    1.392459
C      -1.079457    0.003104    2.098294
C      -2.040913   -0.002861    1.161491
C      -1.359112   -0.630910   -0.044803
O      -2.134676   -0.801992   -1.178120
C      -0.631280   -1.821611    0.676220
O       0.096554   -2.593150   -0.246731
H      -0.489671    1.856147    0.488531
H       0.751171   -0.339784   -0.722338
H       1.052516   -0.759385    1.931008
H      -1.127589    0.325718    3.128829
H      -3.075117    0.307460    1.204038
H      -1.631471   -1.353725   -1.787876
H      -1.259741   -2.434428    1.332180
H       0.492276   -3.339653    0.212316
