18

O      -0.517867    0.688122    0.902619
C       0.097094    0.912797   -0.107058
C       1.316312    1.814595   -0.180543
C       1.199838    2.850503   -1.264889
N       1.847605    4.180570   -1.162728
C       0.377170    4.073351   -1.378464
C       0.111428    3.794273   -2.885875
C       1.384333    3.678258   -3.680357
C       0.970370    2.540702   -2.782991
H      -0.206137    0.453659   -1.074929
H       1.447567    2.279745    0.801447
H       2.195886    1.180412   -0.373165
H       1.988427    4.373540   -0.171229
H      -0.320742    4.518699   -0.681090
H      -0.864081    3.902267   -3.340836
H       1.233485    3.484055   -4.737896
H       2.244704    4.287843   -3.438156
H       0.756449    1.547712   -3.157388
