18

C      -0.127588    1.512261   -0.072605
C      -0.228074    0.000826    0.018586
O      -0.535563   -0.561257    1.045693
C       0.074980   -0.780970   -1.255356
C       0.104865   -2.284525   -1.036226
C      -1.235401   -2.990810   -0.739274
O      -1.091803   -3.847633   -1.894177
C       0.127461   -3.190831   -2.287980
H       0.912302    1.805782   -0.258195
H      -0.718331    1.892257   -0.913167
H      -0.470118    1.965001    0.858485
H      -0.688819   -0.512180   -2.000494
H       1.024282   -0.419671   -1.674953
H       0.877372   -2.536990   -0.307332
H      -1.285862   -3.558652    0.195196
H      -2.124792   -2.350927   -0.811898
H       0.019446   -2.662634   -3.246448
H       0.968124   -3.891223   -2.366379
