19

C      -0.006917   -0.834061    1.292610
C       0.050609    0.042611    0.052593
O       0.039391    1.256273    0.123799
N       0.116241   -0.640143   -1.149730
C       0.133159   -2.105070   -1.289828
C       0.213886   -2.277558   -2.829759
N       0.233710   -0.930011   -3.401595
C       0.179192   -0.079414   -2.452707
C       0.180733    1.396361   -2.683814
H      -0.885237   -1.487586    1.279751
H       0.876270   -1.476529    1.369460
H      -0.055326   -0.180176    2.162544
H       0.995322   -2.538020   -0.773166
H      -0.771965   -2.549627   -0.864542
H       1.114189   -2.821354   -3.135472
H      -0.642212   -2.834047   -3.226129
H       0.234080    1.566415   -3.759740
H      -0.717596    1.859612   -2.270052
H       1.026246    1.871594   -2.181749
