14

O       0.202629    1.201438   -0.517059
C       0.008283    0.040289    0.261461
C      -1.415673   -0.426927    0.204009
N      -2.091497   -0.892854    1.229196
N      -3.303140   -1.195058    0.671751
C      -4.387029   -1.732088    1.392773
O      -4.368186   -1.990907    2.557555
C      -3.278073   -0.880354   -0.659632
N      -2.111486   -0.399218   -0.990351
H      -0.235661    1.048117   -1.362850
H       0.663534   -0.783554   -0.068043
H       0.273154    0.277085    1.294671
H      -5.254717   -1.879780    0.724564
H      -4.127994   -1.025335   -1.310441
