17

O      -0.483001    0.391204   -0.583712
C      -0.135117    1.416645   -0.094156
O      -0.921522    2.347583    0.550200
C       0.237337    3.206917    0.829587
C       1.157893    2.207742    0.085186
C       1.382524    3.271255   -1.042205
C       0.476680    4.242344   -0.259409
C      -0.516307    5.236924   -0.779288
C       0.707317    5.710594   -0.034806
H       0.283363    3.468760    1.885780
H       2.016275    1.691950    0.508404
H       2.423521    3.596845   -1.104151
H       1.046480    2.972114   -2.037834
H      -0.552828    5.391506   -1.852606
H      -1.480367    5.295290   -0.285757
H       0.579365    6.097500    0.971254
H       1.501809    6.188130   -0.599105
