18

C       0.059638    1.457222   -0.102487
N      -0.119692    0.035492    0.099406
C       0.554753   -0.656983    1.092999
C       1.189868    0.003083    2.159470
C       1.815359   -0.740804    3.154169
C       1.837608   -2.130255    3.120972
C       1.210838   -2.783939    2.055514
O       1.190943   -4.144995    1.947087
C       0.577807   -2.059830    1.053846
H       1.112489    1.751335   -0.236563
H      -0.498173    1.758458   -0.992065
H      -0.342007    2.024909    0.744511
H      -0.281562   -0.495756   -0.740721
H       1.193599    1.083809    2.213304
H       2.301855   -0.221921    3.974230
H       2.332200   -2.700556    3.901652
H       1.659832   -4.520313    2.699222
H       0.096363   -2.598898    0.244275
