16

C       0.112464    1.562360   -0.005696
O       0.130545    0.136776    0.103070
C       0.568645   -0.539988   -1.033234
C       0.381097   -2.088815   -0.938833
C      -0.330230   -2.124624   -2.323493
C      -0.439090   -0.600585   -2.255504
O      -1.129832    0.226879   -2.763915
C       1.920744   -0.153272   -1.464870
N       2.974326    0.151132   -1.832332
H       1.121977    1.958225   -0.172455
H      -0.546402    1.888086   -0.816423
H      -0.266514    1.929542    0.949121
H       1.296189   -2.669932   -0.839205
H      -0.293356   -2.306529   -0.109696
H       0.329065   -2.437137   -3.139492
H      -1.273265   -2.667938   -2.406989
