18

C      -0.047492    1.410253   -0.338726
C       1.417866    1.591134    0.105608
C       1.242042    0.190958    0.717202
O      -0.112445    0.101827    0.268852
C       2.197293   -0.988608    0.547460
C       3.097945   -0.518223    1.732506
C       2.967769   -1.903619    2.353529
N       1.569907   -1.732798    1.764057
C       1.620175   -0.221216    2.138406
H      -0.770503    2.102951    0.107148
H      -0.216196    1.365903   -1.420830
H       2.150184    1.659229   -0.701018
H       1.597386    2.394238    0.822804
H       2.494789   -1.540104   -0.346278
H       3.941140    0.180191    1.701498
H       3.532197   -2.728157    1.905553
H       2.973577   -1.985363    3.445504
H       1.243527    0.123692    3.103080
