22

C      -0.193004    1.465472   -0.317776
N      -0.175384    0.014234   -0.440359
C      -1.133490   -0.646537    0.020888
O      -2.286732   -0.233611    0.662678
C      -2.801670   -1.621417    0.727703
C      -3.000694   -2.031886    2.177014
C      -4.076231   -1.730942   -0.092595
C      -1.473659   -2.119450    0.066777
C      -1.475030   -2.885343   -1.249851
H       0.654785    1.785975    0.298737
H      -0.050701    1.910419   -1.308815
H      -1.114183    1.867992    0.120148
H      -3.792194   -1.436438    2.642705
H      -3.287233   -3.087270    2.238232
H      -2.080982   -1.889484    2.751129
H      -3.930016   -1.359124   -1.109186
H      -4.412494   -2.771322   -0.148190
H      -4.871672   -1.140571    0.372538
H      -0.850666   -2.645502    0.797739
H      -2.077440   -2.388104   -2.014288
H      -0.452517   -2.954424   -1.631347
H      -1.857643   -3.902410   -1.116758
