17

C      -0.302779    1.261221    0.132021
O       0.251083   -0.029221   -0.066881
C       0.880254   -0.553016    1.047610
C       2.186814   -0.063027    1.553689
C       2.742654   -1.002645    2.333406
C       1.750624   -2.125628    2.476659
O       0.636390   -1.568283    3.311258
C      -0.053499   -1.259917    2.127567
C       0.828393   -2.046423    1.223953
H       0.472844    2.010806    0.340490
H      -0.813675    1.532308   -0.794373
H      -1.023330    1.267354    0.960952
H       2.561896    0.937736    1.379228
H       3.639168   -0.906190    2.931216
H       2.077571   -3.084329    2.874416
H      -1.119980   -1.075867    2.173512
H       0.648988   -2.769468    0.438582
