16

O      -0.219670    1.300254   -0.405043
C      -0.035489   -0.043309   -0.077660
C      -0.330294   -0.495997    1.346925
C      -1.285580   -0.814915    0.226416
C       1.055869   -0.726350   -0.805014
N       1.292417   -1.996462   -0.914905
C       2.470995   -2.067490   -1.647610
C       2.887049   -0.816707   -1.944880
O       1.983836    0.062435   -1.404779
H       0.604280    1.767254   -0.226095
H       0.271767   -1.299073    1.755562
H      -0.610031    0.290236    2.039076
H      -2.205604   -0.244953    0.170387
H      -1.334007   -1.834853   -0.134772
H       2.922474   -3.011696   -1.907670
H       3.711360   -0.387646   -2.486941
