19

O      -0.026654    1.433838   -0.056156
C       0.003115    0.021808    0.028935
C       0.612776   -0.552964    1.338279
C      -0.073078   -1.907186    1.496553
C      -1.534931   -1.980388    1.969740
C      -2.257017   -0.698911    2.218219
C      -2.242307    0.081146    1.134877
C      -1.435085   -0.555455    0.013293
C      -1.202680   -2.003657    0.496610
H       0.880037    1.755290   -0.051232
H       0.547397   -0.403724   -0.830333
H       1.699672   -0.661177    1.270808
H       0.395514    0.133581    2.162977
H       0.536899   -2.779331    1.704661
H      -1.829043   -2.885660    2.490160
H      -2.697690   -0.444515    3.175379
H      -2.627237    1.090817    1.070943
H      -1.895317   -0.462943   -0.973543
H      -1.371757   -2.862088   -0.141159
