19

C       0.347103    1.444027   -0.466736
N      -0.164323    0.187643    0.082839
C       0.481333   -0.142156    1.344251
C       1.918439   -0.595574    1.126823
O       2.805890   -0.454320    1.924169
C      -1.623613    0.179037    0.141810
C      -2.305346   -0.067310   -1.213598
N      -1.530794   -0.730943   -2.110582
O      -3.452955    0.274642   -1.416061
H       1.434070    1.389683   -0.581894
H      -0.088883    1.621460   -1.452806
H       0.114268    2.308903    0.178520
H       0.473483    0.673160    2.087032
H      -0.040038   -0.997276    1.796016
H       2.074315   -1.109791    0.149836
H      -1.945870   -0.636792    0.798438
H      -2.052252    1.106583    0.551347
H      -0.589273   -0.983034   -1.858987
H      -1.914083   -0.974724   -3.007967
