19

C      -0.004374    1.553540    0.020849
C       0.041320    0.051280    0.085542
C      -1.252131   -0.799597    0.244427
C      -0.357206   -1.864171    0.870982
C       0.976411   -1.845867    0.113875
C       0.707258   -0.850467    1.213358
C       0.887269   -0.761301   -0.966261
C       0.325838   -1.047179   -2.275521
C      -0.143963   -1.276007   -3.359600
H       1.001841    1.987050    0.023012
H      -0.508377    1.882593   -0.895496
H      -0.552184    1.970585    0.872744
H      -1.919718   -0.355444    0.988934
H      -1.811272   -1.038005   -0.666122
H      -0.649824   -2.734022    1.444752
H       1.647607   -2.694541    0.130909
H       1.239267   -0.622247    2.125354
H       1.866118   -0.280536   -1.075028
H      -0.555775   -1.484371   -4.315852
