10

C       0.006026   -1.187451   -0.004051
C      -0.022032    0.014925    0.003006
C      -0.011861    1.428775    0.010896
N      -1.132324    2.171847    0.029427
N      -0.667506    3.408421    0.030535
N       0.651179    3.560852    0.014512
C       1.094959    2.307794    0.001676
H       0.021797   -2.249265   -0.010100
H      -1.289345    4.201340    0.043014
H       2.148351    2.081724   -0.013100
