19

C      -0.694834    1.249290   -0.078353
C       0.016124   -0.099161   -0.060508
C       1.033979   -0.324737   -1.220812
O       1.629654    0.871987   -1.724582
C       2.070509   -1.236362   -0.599110
C       1.970449   -1.263675    0.730955
C       0.819665   -0.444549    1.200287
C       0.861217    0.343891    2.445487
O       0.106818   -0.865837    2.370889
H       0.013603    2.079717   -0.019946
H      -1.265242    1.372266   -1.003757
H      -1.394838    1.327147    0.759606
H      -0.734734   -0.895297   -0.143610
H       0.543141   -0.765025   -2.094327
H       2.255374    1.184510   -1.061506
H       2.835826   -1.725247   -1.190974
H       2.617218   -1.793733    1.420865
H       1.746443    0.306455    3.080654
H       0.276101    1.258822    2.523449
