18

C       0.028797    1.440369   -0.255549
C       1.343217    0.778228    0.035703
O       1.782792    0.827214    1.393490
C       0.805766    0.257804    2.133420
N       0.511455    0.484873    3.341929
C      -0.729625   -0.285146    3.588923
C      -1.362020   -0.561683    2.185080
C      -0.102411   -0.635818    1.310285
C       0.087886   -0.067215   -0.081501
H      -0.412493    2.048425    0.528055
H      -0.132197    1.812180   -1.261281
H       2.171746    0.773946   -0.659366
H      -0.493827   -1.223532    4.109726
H      -1.390156    0.287759    4.245985
H      -1.979228   -1.462573    2.158272
H      -1.984227    0.289154    1.887044
H       0.298998   -1.659536    1.320205
H      -0.069381   -0.697229   -0.948195
