22

C       0.284553    1.471373    0.022213
C       0.033719   -0.014896    0.051855
N      -0.142397   -0.679192    1.129096
O      -0.091800    0.146420    2.268415
C      -0.020221   -0.775770   -1.249117
C      -1.229771   -0.320282   -2.080083
C       1.305720   -0.761351   -2.091085
C       1.129889   -2.283576   -2.337627
C       0.092606   -2.329329   -1.184751
H       1.025484    1.743371    0.778364
H       0.631769    1.797561   -0.960119
H      -0.629766    2.022898    0.268285
H      -0.205266   -0.491137    2.980777
H      -1.202344    0.756202   -2.279633
H      -1.251352   -0.835082   -3.046279
H      -2.164314   -0.545894   -1.555756
H       1.325268   -0.105712   -2.966213
H       2.179829   -0.543690   -1.471231
H       0.687620   -2.499101   -3.313721
H       2.021741   -2.903545   -2.224701
H       0.524261   -2.659132   -0.239375
H      -0.830309   -2.888113   -1.359308
