15

O       0.373578    0.225565   -0.710427
C       0.378114    1.403455   -0.525751
O       0.889164    1.957619    0.596891
C       0.937843    3.393209    0.661433
C       2.271960    3.897677    0.215464
N       2.500586    5.049890   -0.373526
C       3.864989    5.105436   -0.547233
C       4.458860    3.969512   -0.064052
N       3.426559    3.204525    0.430097
H      -0.035575    2.155284   -1.224471
H       0.157501    3.853271    0.046608
H       0.735246    3.639615    1.708302
H       4.337263    5.954319   -1.017032
H       5.481849    3.633787   -0.035579
H       3.489528    2.280505    0.825367
