20

C       0.667161    1.153437    0.198712
C      -0.050834   -0.087856   -0.324705
C       0.662607   -0.734610   -1.493237
O       1.681883   -0.326684   -1.998627
O      -0.000132   -1.833575   -1.907073
C       0.550923   -2.535860   -3.045586
C       1.576458   -3.558699   -2.638546
C       2.705931   -3.844793   -3.562127
N       2.944239   -3.144945   -2.295445
H       1.676958    0.908119    0.536870
H       0.759035    1.911892   -0.582657
H       0.116558    1.586208    1.038393
H      -0.159334   -0.850262    0.455693
H      -1.072906    0.143190   -0.647758
H      -0.313400   -3.015160   -3.513301
H       0.982504   -1.806471   -3.736423
H       1.191095   -4.365221   -2.017731
H       3.112597   -4.850315   -3.621790
H       2.757131   -3.282490   -4.491910
H       3.035690   -2.143141   -2.450944
