21

C       0.184323    1.394050   -0.034203
O       0.123076   -0.013782   -0.021229
C       0.571082   -0.588556    1.190895
C       0.564333   -2.113888    0.997626
C      -0.868071   -2.633219    0.816799
O       1.357959   -2.423842   -0.141044
C       1.268300   -2.765275    2.209238
C       1.283967   -4.222010    2.182096
C       1.297803   -5.423547    2.179792
H       1.211951    1.757144    0.119956
H      -0.167807    1.727596   -1.013135
H      -0.457558    1.833744    0.744118
H       1.594772   -0.247353    1.415203
H      -0.081868   -0.290261    2.027113
H      -1.349212   -2.114418   -0.016090
H      -0.847167   -3.704279    0.607817
H      -1.469614   -2.464242    1.716772
H       1.078801   -1.807856   -0.830010
H       2.299132   -2.392747    2.237583
H       0.777328   -2.423666    3.129676
H       1.316361   -6.484954    2.168954
