12

O      -0.083795    0.015902    0.002117
C      -0.037408    1.214548    0.008545
C       1.324054    1.953422   -0.001182
O       2.365518    1.343574   -0.015390
C       1.293081    3.436774    0.007946
N       0.149116    4.094314    0.023484
O       0.485332    5.426283    0.027966
C       1.829108    5.544168    0.014996
C       2.409807    4.321474    0.001848
H      -0.938414    1.856114    0.021318
H       2.206207    6.554483    0.017153
H       3.453326    4.059686   -0.010315
