21

C      -0.027231    1.458907    0.088393
C      -0.015515   -0.056767    0.009557
C      -1.253708   -0.634089   -0.654375
C      -1.257952   -2.177376   -0.742554
C      -0.014978   -2.796685   -0.143123
C       1.365296   -2.203237   -0.261440
C       0.674369   -2.278846    1.092970
C       0.670410   -0.728968    1.177727
C       1.361501   -0.653330   -0.177172
H       0.877834    1.843068    0.570198
H      -0.088495    1.902685   -0.912247
H      -0.890035    1.814527    0.663791
H      -2.134051   -0.284742   -0.100983
H      -1.339971   -0.198013   -1.657213
H      -2.137488   -2.583408   -0.229876
H      -1.342976   -2.496568   -1.787623
H       0.001875   -3.883663   -0.195242
H       2.215255   -2.771182   -0.618285
H       0.911600   -2.913829    1.937274
H       0.914098   -0.189021    2.084715
H       2.212914   -0.046925   -0.461641
