22

C       0.241012    1.165551    0.074569
O       0.060587   -0.247216    0.146461
C      -1.213795   -0.695290    0.060942
C      -1.241231   -2.205059    0.152484
N      -2.174902    0.119816   -0.075345
C      -3.533899   -0.337499   -0.167795
C      -4.563373    0.338860    0.784620
C      -5.571662    0.383290   -0.394145
C      -4.372250    0.204939   -1.362500
H       1.316359    1.329988    0.160042
H      -0.134358    1.559693   -0.874128
H      -0.291073    1.669304    0.886601
H      -1.840314   -2.532345    1.006957
H      -1.683704   -2.641535   -0.747434
H      -0.226928   -2.587142    0.266807
H      -3.640884   -1.430003   -0.109183
H      -4.844726   -0.198031    1.694252
H      -4.211941    1.338487    1.054086
H      -6.235935   -0.485836   -0.399070
H      -6.181369    1.282476   -0.504503
H      -3.967949    1.167518   -1.687081
H      -4.495036   -0.443066   -2.234195
