15

O       0.162616    1.445574   -0.090083
C       0.118504    0.055202   -0.068540
C       0.053996   -0.659737    1.291355
N      -1.439243   -0.250482    1.462666
C      -1.789739   -1.695205    1.785464
C      -0.710317   -1.899073    0.717869
C      -0.163216   -3.113709    0.159216
N       0.268518   -4.091713   -0.281943
C      -1.253286   -0.638804   -0.034406
H      -0.485132    1.761961    0.553627
H       0.844410   -0.324814   -0.790328
H       0.733485   -0.651527    2.144484
H      -1.550500   -1.988361    2.811181
H      -2.816465   -1.968089    1.527320
H      -2.096470   -0.606211   -0.725478
