22

C      -0.271081    1.550370   -0.190520
C      -0.119915    0.031625   -0.014230
C       0.627844   -0.575852   -1.214810
C       0.601069   -2.112148   -1.225797
C       1.543739   -2.692702   -2.248696
O       1.243787   -3.482464   -3.107470
N       0.539718   -0.436836    1.214764
C       1.461384    0.415096    1.956384
C       0.124797    0.059528    2.514224
H       0.693665    2.035504   -0.371272
H      -0.909058    1.757073   -1.054978
H      -0.737193    2.026582    0.677518
H      -1.126509   -0.407049    0.017426
H       0.190971   -0.188825   -2.142649
H       1.668051   -0.222825   -1.187645
H       0.922505   -2.456067   -0.233225
H      -0.404939   -2.498834   -1.414942
H       2.594905   -2.325875   -2.155381
H       2.361506   -0.072626    2.320880
H       1.602349    1.446190    1.642190
H      -0.615570    0.856122    2.562898
H       0.029241   -0.690342    3.295413
