17

N       0.791869    0.045340    1.420223
C       0.049370   -0.219775    0.437344
O      -0.834471   -1.237694    0.523164
C      -1.587824   -1.538710   -0.647852
C      -2.738288   -2.459332   -0.261202
C      -2.550045   -3.440551    0.848304
N      -3.407192   -2.262337    1.042036
C      -3.587493   -2.775706   -1.382417
C      -4.250567   -3.024274   -2.353675
H       1.387073    0.842247    1.204664
H       0.022521    0.302512   -0.528250
H      -1.989933   -0.617471   -1.089613
H      -0.952717   -2.031363   -1.394886
H      -3.076527   -4.388328    0.801418
H      -1.578955   -3.458134    1.332641
H      -2.877959   -1.562421    1.560098
H      -4.855586   -3.252892   -3.196059
