18

N      -0.472055   -0.982136   -0.724179
C      -0.286201    0.091286   -0.335547
C      -0.034234    1.440048    0.141626
C       0.290071    1.665372    1.650502
C       1.348847    2.715803    1.230141
C       1.337257    2.130488   -0.212106
C       2.457758    1.168770   -0.527719
C       3.857980    1.455666   -0.197842
O       3.102075    0.517168    0.571283
H      -0.862927    2.079928   -0.174917
H      -0.540207    1.990712    2.278887
H       0.757147    0.782052    2.087526
H       0.961780    3.737135    1.253811
H       2.298316    2.678659    1.764162
H       1.261381    2.853253   -1.030042
H       2.264365    0.508114   -1.374050
H       4.652054    1.027856   -0.807244
H       4.114304    2.381134    0.316022
