17

O       0.132379    1.427570   -0.086029
C       0.024108    0.038157   -0.028303
C       0.131007   -0.648026    1.352452
O      -0.826197    0.099973    2.096361
C      -2.047439   -0.163693    1.282403
C      -2.631860   -1.411569    1.897962
C      -1.786733   -2.410554    1.608824
C      -0.714182   -1.866501    0.724874
C      -1.363508   -0.654474   -0.021189
H      -0.198507    1.747384    0.764358
H       0.684279   -0.395674   -0.782857
H       1.047120   -0.779580    1.925137
H      -2.653543    0.740006    1.254402
H      -3.467991   -1.427708    2.584434
H      -1.805280   -3.417052    2.008037
H      -0.111674   -2.555418    0.135881
H      -1.992745   -0.786462   -0.899966
