19

C      -0.092258    1.529571   -0.115541
C      -0.018029    0.030904    0.039023
N       1.311494   -0.587984   -0.116644
C       0.660576   -0.617344    1.183983
C       1.222475   -0.083525    2.515339
N       0.695585   -1.317670    3.119194
C       0.694913   -1.808491    4.470294
C       0.205532   -1.851612    1.949714
O      -0.341399   -2.893436    1.685701
H       0.800230    2.005232    0.299607
H      -0.159938    1.805209   -1.173097
H      -0.973932    1.930865    0.395438
H      -0.865553   -0.525180   -0.360177
H       1.235196   -1.506347   -0.550904
H       2.313778    0.001627    2.549499
H       0.762366    0.833552    2.900917
H       0.155679   -1.132404    5.145583
H       0.193247   -2.779396    4.469922
H       1.714554   -1.938706    4.853647
