20

C       0.131298    1.422972    0.057654
C      -0.135815   -0.058935   -0.133314
O       0.828943   -0.566332   -1.050801
C       0.727340   -1.946180   -1.306814
C      -0.538415   -2.267652   -2.016817
N      -1.526286   -2.506867   -2.566680
C       1.920494   -2.379150   -2.127513
C       3.206803   -2.724214   -1.426967
C       2.383399   -3.811801   -2.067823
H       1.139924    1.586807    0.447086
H       0.038565    1.954189   -0.893496
H      -0.588337    1.847349    0.763742
H      -0.054473   -0.599558    0.823840
H      -1.151051   -0.225688   -0.521525
H       0.713664   -2.514436   -0.360425
H       1.991395   -1.870388   -3.082950
H       4.134588   -2.426506   -1.901438
H       3.224953   -2.669014   -0.343649
H       1.845949   -4.493864   -1.417285
H       2.739480   -4.265669   -2.985007
