15

C      -0.000228    1.438826   -0.010043
C       1.423923    2.002782    0.020493
O       2.162487    1.559166    1.167052
C       2.007826    0.227054    1.379889
C       2.695146   -0.646669    2.153019
O       2.121608   -1.866779    2.073989
N       1.014594   -1.811453    1.211886
C       0.965102   -0.564212    0.809931
N       0.067022   -0.020154   -0.085088
H      -0.547172    1.794518    0.876879
H      -0.509642    1.820236   -0.900084
H       1.955545    1.706001   -0.893001
H       1.401703    3.092182    0.084200
H       3.556993   -0.556690    2.793173
H      -0.813356   -0.508686   -0.165743
