16

C      -0.043600    1.559430    0.055253
C       0.009772    0.020916   -0.011878
C       0.685495   -0.478746   -1.198821
C       1.251374   -0.877543   -2.193089
C       1.884704   -1.325023   -3.306582
C       2.449265   -1.733560   -4.298916
C       3.139808   -2.135426   -5.513899
N       3.242656   -3.487316   -5.668814
O       3.582124   -1.331802   -6.312668
H       0.963748    1.983203    0.063334
H      -0.576577    1.967737   -0.807082
H      -0.560833    1.877070    0.964928
H       0.516819   -0.372262    0.879065
H      -1.008939   -0.387571    0.016892
H       2.867015   -4.127860   -4.991995
H       3.708980   -3.840437   -6.488164
