17

C      -0.000194    1.539700    0.010240
C       0.007915    0.009446    0.001935
C      -1.407533   -0.577580    0.012450
N      -1.429451   -2.044657    0.004773
C      -1.411374   -2.714778    1.235640
O      -1.377191   -3.900623    1.406291
C      -1.434942   -2.701487   -1.233357
O      -1.404327   -3.885428   -1.417383
H       1.018091    1.937466    0.002531
H      -0.520544    1.940017   -0.866769
H      -0.503444    1.930512    0.901402
H       0.539161   -0.362519   -0.882634
H       0.556105   -0.371957    0.872028
H      -1.954327   -0.232623    0.896084
H      -1.971267   -0.223188   -0.856688
H      -1.441770   -1.983811    2.069353
H      -1.481445   -1.961599   -2.058412
