19

C       0.121824    1.485851   -0.008089
C      -0.055152    0.009350   -0.032724
C      -1.143160   -0.811428    0.031669
C      -2.585530   -0.427408    0.155987
C      -0.627388   -2.158370   -0.044421
C      -1.419654   -3.424060   -0.015276
O      -0.526705   -4.522619   -0.107019
C       0.719185   -2.042941   -0.147787
O       1.086701   -0.731596   -0.142357
H       0.745064    1.801662    0.836646
H       0.605871    1.847606   -0.922731
H      -0.845999    1.983634    0.081484
H      -3.177652   -0.795984   -0.690819
H      -3.038577   -0.842617    1.064776
H      -2.712514    0.657652    0.194891
H      -2.014874   -3.471943    0.913366
H      -2.145169   -3.431010   -0.847436
H      -1.045816   -5.331287   -0.093785
H       1.513191   -2.764186   -0.229024
