20

C       0.504307    1.320695    0.045745
C      -0.009864   -0.090935    0.169303
N      -0.368077   -0.618955    1.278488
O      -0.195098    0.275269    2.350913
C      -0.131279   -0.907978   -1.072499
C       1.041985   -1.555649   -1.777523
C       2.029998   -2.161986   -0.771102
C       0.879726   -3.053157   -0.200472
C      -0.097466   -2.403255   -1.189968
H       1.456967    1.428778    0.575788
H       0.653976    1.593000   -1.000616
H      -0.191216    2.024699    0.512335
H      -0.514771   -0.243118    3.096536
H      -0.811651   -0.451314   -1.792324
H       1.263060   -1.328308   -2.814080
H       2.815165   -2.749931   -1.250858
H       2.500102   -1.459706   -0.075504
H       1.042158   -4.109462   -0.426849
H       0.636902   -2.940692    0.856654
H      -0.889007   -2.927741   -1.712914
