19

C       0.077416    1.579250    0.442653
C       0.147145    0.103312    0.128247
C       0.563958   -0.521372   -1.157261
C       1.399131    0.213957   -2.207095
C       0.774623    1.382460   -2.977991
O       1.709438    1.930427   -3.883042
N       2.602485    0.672492   -1.475267
C       2.533595    0.186095   -0.301512
N       1.439654   -0.655450    0.045648
H       0.865281    2.158518   -0.040397
H      -0.888069    1.979771    0.116611
H       0.151746    1.736066    1.524232
H      -0.584242   -0.477888    0.687139
H       0.057508   -1.430711   -1.465413
H       1.732453   -0.509975   -2.963250
H      -0.075552    1.024709   -3.569017
H       0.395193    2.142413   -2.279519
H       2.523448    2.052186   -3.377828
H       3.292714    0.363883    0.455424
