18

C      -0.164429    1.494122   -0.054066
C      -0.006218    0.010213    0.039569
N       0.216828   -0.695211   -1.044456
O       0.313204   -2.024390   -0.615380
C       0.144423   -2.076120    0.719711
C      -0.062666   -0.818181    1.198139
C       0.211591   -3.391265    1.363189
C      -0.310556   -4.625373    0.647564
C       1.165194   -4.453761    0.843744
H       0.594327    2.007147    0.545981
H      -0.066318    1.816871   -1.092251
H      -1.144810    1.807456    0.319597
H      -0.230515   -0.521727    2.220310
H       0.064136   -3.349303    2.436268
H      -0.835172   -5.360445    1.247101
H      -0.707321   -4.478872   -0.349985
H       1.762075   -4.191627   -0.021711
H       1.669335   -5.069151    1.580042
