21

C      -0.055646    1.511951   -0.220561
C       0.074800    0.013332   -0.059728
C       1.437159   -0.650779   -0.023107
O       2.600014    0.127561   -0.032214
C       0.601375   -0.601312    1.223767
C       1.023185    0.233826    2.432354
C       1.002041   -0.812655    3.554709
O      -0.054460   -1.700723    3.215430
C      -0.000887   -1.888403    1.808615
H       0.819222    2.029718    0.179794
H      -0.152975    1.785666   -1.277378
H      -0.941357    1.892563    0.299272
H      -0.701473   -0.563864   -0.559771
H       1.541543   -1.621108   -0.512997
H       2.730824    0.462544   -0.925588
H       2.002440    0.696366    2.297379
H       0.292390    1.023010    2.638712
H       1.963628   -1.350471    3.601818
H       0.787976   -0.400742    4.544216
H      -1.019650   -2.088609    1.459769
H       0.626160   -2.760404    1.556372
