20

C      -0.090921    1.545970    0.048994
C       0.034694    0.048948    0.036023
C      -0.818930   -0.850469    0.891453
C       0.674080   -0.912983    1.042243
C       1.261363   -1.764215   -0.084572
C       0.636913   -0.771643   -1.147153
C      -0.321710   -1.342443   -2.199754
C       1.697503   -0.015600   -1.812340
N       2.531111    0.587122   -2.341334
H       0.837882    2.029348   -0.269626
H      -0.890784    1.884539   -0.620547
H      -0.331675    1.902693    1.055372
H      -1.349973   -0.329242    1.681728
H      -1.366186   -1.695794    0.481423
H       1.174346   -0.682946    1.974749
H       2.351001   -1.773719   -0.118981
H       0.892941   -2.793060   -0.151316
H      -1.113815   -1.924228   -1.722844
H      -0.785478   -0.540186   -2.781238
H       0.212382   -1.997759   -2.894145
