22

C       0.150081    1.685506   -0.109607
C       0.105567    0.157523   -0.065254
C       1.204501   -0.601365   -0.897048
C       1.662477   -1.314348    0.380235
C       2.120662   -0.307627    1.394870
C       0.645598   -0.530617    1.206478
N      -1.186847   -0.470454   -0.371038
C      -2.429772    0.064420    0.162712
C      -2.132838    0.130639   -1.298632
H       1.136654    2.043807    0.194255
H      -0.031062    2.066614   -1.119920
H      -0.580402    2.141416    0.567001
H       0.741613   -1.262690   -1.630102
H       1.958933    0.021297   -1.390469
H       1.928074   -2.361654    0.450759
H       2.525127   -0.719529    2.314389
H       2.603370    0.615306    1.081171
H       0.008556   -0.875761    2.012222
H      -3.126019   -0.672058    0.555892
H      -2.417818    1.006417    0.706911
H      -1.927955    1.115684   -1.711205
H      -2.608669   -0.557286   -1.992882
