19

O       0.122979    1.395496   -0.131750
C       0.101468    0.009075   -0.079444
C      -0.036316   -0.674007    1.312658
O      -1.416121   -0.111069    1.381600
C      -1.299182   -0.692246   -0.005686
C      -2.476837   -0.585708   -0.917556
C      -0.608002   -1.906421    0.621972
C      -0.031402   -3.170092    0.080410
C      -1.131289   -3.194900    1.138547
H      -0.536589    1.672764    0.522336
H       0.837477   -0.390876   -0.779501
H       0.582626   -0.590136    2.206133
H      -2.681870    0.463654   -1.150526
H      -2.273887   -1.110376   -1.856772
H      -3.367764   -1.023680   -0.457587
H      -0.292635   -3.470349   -0.929721
H       0.970947   -3.456326    0.382678
H      -0.861395   -3.498447    2.144665
H      -2.122581   -3.511471    0.830132
