25

C      -0.241143    1.583480    0.100073
C      -0.003141    0.064707    0.007923
C      -1.368726   -0.641999    0.087618
C       0.688692   -0.311511   -1.339624
C       2.233018   -0.401472   -1.260636
C       2.691899   -0.854157    0.135626
C       1.612650   -1.756897    0.804051
C       0.886130   -0.428567    1.178430
C       2.294767    0.230730    1.168429
H       0.665625    2.161659   -0.097450
H      -0.994021    1.895977   -0.631962
H      -0.607088    1.866790    1.093871
H      -1.987476   -0.401392   -0.784279
H      -1.254232   -1.730719    0.123978
H      -1.920436   -0.333208    0.982896
H       0.309448   -1.289712   -1.653503
H       0.383738    0.387829   -2.125807
H       2.587874   -1.099003   -2.028349
H       2.697022    0.566678   -1.487839
H       3.728070   -1.202060    0.128246
H       1.086705   -2.494163    0.191301
H       2.008250   -2.255385    1.693061
H       0.325702   -0.400562    2.118178
H       2.802146    0.085750    2.126839
H       2.391367    1.278800    0.873721
