17

C       0.192095    1.271140   -0.235084
O      -0.072799   -0.087583    0.132680
C       0.685095   -0.555859    1.147039
O       1.535245    0.076916    1.731166
N       0.328274   -1.847140    1.430428
C       1.081098   -2.638245    2.384306
C       0.192854   -3.214352    3.498660
C       1.822355   -3.717415    1.700735
N       2.376341   -4.577454    1.163617
H       1.230212    1.389739   -0.554391
H      -0.487177    1.488850   -1.059259
H       0.000950    1.943915    0.604534
H      -0.323581   -2.302536    0.811378
H       1.813683   -1.948675    2.815743
H      -0.573073   -3.876330    3.084804
H       0.794035   -3.788656    4.208030
H      -0.297489   -2.393493    4.026626
