17

C      -0.033149    1.503340    0.070690
C      -0.008234    0.015526   -0.027958
C      -0.031510   -0.770730   -1.135488
N       0.009680   -2.087479   -0.672001
C       0.003322   -3.229601   -1.465523
O      -0.039116   -3.210613   -2.667736
C       0.056438   -2.016314    0.720872
C       0.110350   -3.209103    1.616629
N       0.046561   -0.777577    1.121339
H       0.859024    1.874585    0.586367
H      -0.076811    1.963708   -0.919366
H      -0.900291    1.841167    0.648345
H      -0.072302   -0.565189   -2.190732
H       0.041745   -4.154846   -0.866780
H       1.001427   -3.821145    1.438825
H       0.139115   -2.849826    2.645906
H      -0.766749   -3.855129    1.500125
