19

C      -0.056193    1.569456    0.046309
C      -0.003250    0.032518    0.007567
C      -1.426663   -0.554488   -0.027451
C       0.813050   -0.478505   -1.175130
C       1.808880   -1.291361   -0.817960
C       1.878793   -1.404585    0.668156
N       2.172419   -0.089576    1.314866
C       0.776429   -0.556539    1.194591
H       0.950681    1.981092    0.142762
H      -0.513100    1.969201   -0.865761
H      -0.655327    1.915832    0.895978
H      -1.959830   -0.235413   -0.929284
H      -1.402183   -1.648712   -0.021041
H      -2.007257   -0.218377    0.839820
H       0.584714   -0.171328   -2.190992
H       2.509896   -1.773069   -1.489188
H       2.218682   -2.310686    1.158275
H       2.481333   -0.260426    2.270959
H       0.234279   -0.814470    2.099643
