15

O       0.118882    1.322082   -0.131502
C       0.099889   -0.037176   -0.110526
C       0.605606   -0.961189   -1.219040
C       0.069610   -1.934127   -0.141900
C       0.530022   -1.017771    1.040291
N      -0.811674   -0.916273    1.704866
C      -1.129696   -0.995890    0.241377
C      -2.458067   -0.989872   -0.300912
N      -3.522839   -0.982440   -0.753844
H      -0.244608    1.641332    0.705375
H       0.062784   -0.930658   -2.166480
H       1.685910   -0.968586   -1.383311
H       0.036353   -3.021396   -0.145664
H       1.469786   -1.044985    1.589573
H      -1.055884   -1.795241    2.169107
