21

C      -0.071440    1.485174    0.349187
C      -0.084837   -0.034154    0.164648
C      -1.489432   -0.588668   -0.103187
C      -1.501747   -2.102323   -0.254932
O      -1.146726   -2.821802    0.955651
C      -2.372125   -3.597491    0.987253
C      -3.159800   -3.461979    2.277674
C      -2.858640   -2.819538   -0.245351
O      -3.867661   -2.759087   -0.880072
H       0.941800    1.852302    0.538984
H      -0.450790    1.997779   -0.541850
H      -0.698369    1.786715    1.195559
H       0.575852   -0.312388   -0.666938
H       0.320776   -0.523481    1.057331
H      -2.164431   -0.304710    0.713772
H      -1.904043   -0.155736   -1.022954
H      -0.864493   -2.411988   -1.097567
H      -2.174021   -4.655557    0.760484
H      -3.384885   -2.413760    2.492235
H      -4.101496   -4.013647    2.196733
H      -2.587949   -3.872417    3.114982
