17

C       0.067139    1.505856   -0.267885
C       0.048773    0.056320   -0.139625
C       0.032847   -1.144154   -0.041309
C      -0.002797   -2.585313    0.087173
C       0.142045   -3.201434    1.507575
O      -1.123720   -3.881936    1.395780
C      -1.398939   -3.308728    0.108766
C      -2.607763   -2.390930    0.134451
O      -3.257017   -2.117932   -0.839976
H       0.817841    1.830362   -0.996540
H      -0.905665    1.882661   -0.601594
H       0.300506    1.986801    0.688242
H       0.666461   -3.054492   -0.638403
H       0.975222   -3.900496    1.637201
H       0.146051   -2.467968    2.320790
H      -1.533159   -4.062465   -0.674749
H      -2.841716   -1.988754    1.145327
