19

C      -1.062703    1.337853    0.329869
O      -1.435220   -0.018817    0.250236
C      -0.443528   -0.805620   -0.383211
C      -0.868920   -2.196940   -0.439085
C      -1.186695   -3.358569   -0.514883
C      -1.628254   -4.718341   -0.514640
C      -0.891168   -5.763974    0.327354
C      -2.219648   -5.250869    0.789191
O      -2.291208   -4.422200    1.900483
H      -1.877177    1.867242    0.828891
H      -0.137773    1.475776    0.912473
H      -0.908298    1.779778   -0.667482
H      -0.252190   -0.434837   -1.405676
H       0.513677   -0.726032    0.161760
H      -2.086937   -5.068975   -1.433994
H      -0.821875   -6.766502   -0.080163
H      -0.022610   -5.419538    0.875752
H      -3.081751   -5.906531    0.690576
H      -2.188708   -3.508077    1.603066
