21

C      -0.549396    1.441771   -0.080553
C       0.077369    0.048611   -0.058832
C       1.429818   -0.071160   -0.781599
C       1.981744   -1.375436   -0.206881
O       1.454038   -1.486936    1.119924
C       0.428840   -0.522991    1.338966
C       0.882249    0.522801    2.343388
C       2.061081    0.327715    3.192313
O       2.104919    1.208983    2.062255
H       0.130465    2.191558    0.334772
H      -0.785921    1.737507   -1.107532
H      -1.483406    1.473371    0.491490
H      -0.622617   -0.658124   -0.523465
H       1.330410   -0.098907   -1.869963
H       2.073672    0.768937   -0.507779
H       1.654358   -2.243621   -0.797453
H       3.074789   -1.395698   -0.149462
H      -0.438682   -1.036298    1.778853
H       0.083956    1.167329    2.716267
H       2.111855    0.817912    4.163351
H       2.634119   -0.588173    3.081023
