16

O       0.192045    1.358688   -0.056549
C       0.049717   -0.025419   -0.021705
C       0.137002   -0.691920    1.401618
N      -1.350490   -0.802511    1.403381
C      -1.421870   -0.580366   -0.066158
C      -2.458564    0.338492   -0.501305
C      -3.283724    1.139667   -0.853129
C       0.858756   -1.952630    1.434103
C       1.429832   -3.011828    1.440402
H      -0.604144    1.759556    0.313962
H       0.729951   -0.445713   -0.762370
H       0.511171   -0.011000    2.173986
H      -1.710777   -1.696939    1.718043
H      -1.463264   -1.505553   -0.656295
H      -4.026869    1.829826   -1.169091
H       1.944064   -3.940966    1.458888
