12

N       0.022340    1.238720    0.008992
N       1.049429    2.072114    0.003433
C       2.263349    1.530087   -0.011376
C       2.407599    0.143370   -0.020273
N       3.445531   -0.691770   -0.034934
C       2.822215   -1.911184   -0.035424
N       1.483511   -1.952473   -0.022556
C       1.175799   -0.636940   -0.012421
N      -0.024051   -0.080621    0.002328
H      -0.881598    1.691884    0.020284
H       3.092309    2.228595   -0.015719
H       3.408549   -2.822443   -0.046076
