23

C      -0.630370    0.675883   -2.721603
C      -0.314553   -0.328556   -1.605701
C      -1.554898   -0.771973   -0.845113
O      -2.232342    0.303035   -0.246158
C      -2.411771   -1.949995   -1.305786
C      -2.170319   -2.757441   -2.563628
C      -1.570706   -2.049424   -0.035363
C      -0.361909   -2.957235    0.060415
O      -2.260961   -1.948561    1.182686
H       0.282514    0.987472   -3.237597
H      -1.305829    0.244992   -3.469052
H      -1.101475    1.575860   -2.314560
H       0.206149   -1.190006   -2.032437
H       0.376842    0.131332   -0.888870
H      -2.793057    0.706699   -0.916157
H      -3.461941   -1.794837   -1.066145
H      -1.107627   -2.875426   -2.790409
H      -2.596517   -3.763350   -2.473071
H      -2.637455   -2.282733   -3.433996
H       0.188682   -3.046606   -0.877728
H       0.324070   -2.588600    0.829440
H      -0.675574   -3.968144    0.350592
H      -2.652335   -2.810498    1.363267
