15

N       0.000098    1.340205    0.257081
C       0.039499   -0.049216    0.119477
N      -1.069460   -0.773343    0.098498
N      -0.614863   -2.070016    0.021799
C       0.732967   -2.150653    0.001944
N       1.437656   -3.351348    0.015317
C       1.212962   -0.852478    0.049607
N       2.595109   -0.513371    0.033652
H       0.676631    1.812638   -0.328969
H      -0.929232    1.699822    0.077095
H      -1.270491   -2.821447    0.138080
H       1.167460   -3.990758   -0.723098
H       2.429550   -3.148934   -0.054310
H       2.857103    0.037720    0.845380
H       2.854398    0.024911   -0.787940
