20

C      -0.163803    1.550995    0.683712
C      -0.090243    0.043547    0.530928
C       0.047594   -0.607626   -0.853311
O       1.183111   -0.072636   -1.580775
C       2.106317   -0.934488   -0.866833
C       2.456782   -0.360831    0.514187
C       2.995575    1.049387    0.662956
N       1.090664   -0.764188    1.059961
C       0.939142   -1.667327   -0.176971
H       0.477219    2.063759   -0.034262
H      -1.192956    1.885150    0.514157
H       0.122685    1.855710    1.695064
H      -0.957959   -0.409948    1.029655
H      -0.819394   -0.765639   -1.499916
H       2.873375   -1.351938   -1.524172
H       3.147700   -1.061792    1.002657
H       2.535576    1.737008   -0.047606
H       2.830775    1.425689    1.677351
H       4.075312    1.048725    0.479290
H       0.770354   -2.735251   -0.060555
