21

C      -0.109395    1.577664    0.051258
C       0.160085    0.076910   -0.112633
C       0.759592   -0.549106    1.141006
C      -0.119848   -0.873195    2.380755
C      -0.692103   -2.163230    1.674775
C      -0.842616   -3.227581    2.750566
C       0.231471   -3.056952    3.523774
C       0.968579   -1.900289    2.869781
C       0.841517   -2.088797    1.311595
H       0.809660    2.118942    0.302589
H      -0.511465    2.014140   -0.868358
H      -0.831260    1.765294    0.853449
H      -0.769053   -0.431219   -0.393754
H       0.854512   -0.077012   -0.949478
H       1.694765   -0.033725    1.398789
H      -0.681963   -0.181476    3.015518
H      -1.448761   -2.078614    0.896288
H      -1.649976   -3.941461    2.835740
H       0.539127   -3.592797    4.410758
H       1.904500   -1.529663    3.290492
H       1.397116   -2.806825    0.700374
