19

C      -0.218096    1.529774    0.075936
C       0.148713    0.083440    0.013590
C       0.725278   -0.699467   -1.175241
C       1.356516   -1.721162   -0.148559
C       2.802453   -1.798512   -0.175179
C       4.004790   -1.843146   -0.179881
C       0.747433   -0.847443    0.991993
C       1.241712   -0.708335    2.393057
O      -0.664624   -0.855286    0.748825
H       0.599422    2.153364   -0.299844
H      -1.104578    1.731230   -0.536295
H      -0.443541    1.826630    1.103637
H      -0.011244   -1.110954   -1.869340
H       1.494672   -0.153353   -1.724156
H       0.911365   -2.720340   -0.179902
H       5.065267   -1.895067   -0.190550
H       2.322243   -0.540014    2.400501
H       0.745658    0.125989    2.896074
H       1.036483   -1.619854    2.965898
