18

C      -0.432729    1.353895   -0.035901
C      -0.031839   -0.086882    0.013031
N       0.965176   -0.538340   -0.746963
N       1.048501   -1.851628   -0.450008
C       0.144686   -2.258780    0.478042
C      -0.581842   -1.125575    0.802075
C       0.063468   -3.665287    0.910704
C      -0.599360   -4.031266    2.191160
N      -1.238676   -4.374331    0.915345
H      -0.337126    1.830211    0.945993
H       0.202466    1.891619   -0.742774
H      -1.475372    1.469143   -0.351988
H       1.737559   -2.416358   -0.917724
H      -1.387205   -1.049731    1.515976
H       0.884438   -4.290254    0.565001
H      -0.231595   -4.878809    2.762806
H      -1.010192   -3.223357    2.790153
H      -1.972811   -3.701229    0.705391
