17

C      -0.047438    1.508182    0.053390
C      -0.081293    0.017495   -0.020729
C      -0.075274   -0.762898   -1.106080
C      -0.001375   -2.206691   -0.730279
N       1.256536   -2.539781    0.015245
C      -0.001401   -2.257394    0.746695
C      -0.012050   -0.815996    1.264856
O       1.135186   -0.506712    2.041360
H       0.818181    1.834514    0.640604
H       0.005149    1.967064   -0.937312
H      -0.936041    1.898031    0.567114
H      -0.068543   -0.415110   -2.133106
H      -0.452830   -2.979820   -1.342243
H       1.398915   -3.548454   -0.003368
H      -0.470974   -3.051514    1.315432
H      -0.873214   -0.625640    1.917147
H       1.872916   -0.894010    1.547826
