15

C       0.070961    1.454754    0.008547
N      -0.057905    0.017251    0.004157
C      -1.233144   -0.660257    0.011318
N      -1.138894   -2.004138    0.006691
C      -2.282131   -2.679200    0.013320
N      -3.524800   -2.193048    0.024228
C      -3.596947   -0.854394    0.028742
C      -2.490775   -0.026131    0.022779
H       1.131303    1.712359    0.000067
H      -0.395368    1.911494   -0.874263
H      -0.379697    1.904983    0.902807
H       0.765277   -0.562150   -0.002759
H      -2.190570   -3.763950    0.009637
H      -4.597224   -0.425837    0.037627
H      -2.594853    1.051048    0.026823
