15

O      -0.088292    1.431498    0.034734
C       0.046969    0.065574   -0.046533
C       0.012879   -0.918121    1.117322
N       0.874978   -2.045968    1.006870
C       1.230561   -2.037654   -0.231461
N       0.496594   -3.012219   -1.063007
C      -0.354206   -1.710245   -1.275361
C      -1.038379   -0.998303   -0.056922
C       0.839954   -0.762492   -1.049834
H       0.648312    1.782356    0.548443
H      -0.358088   -0.603443    2.086141
H       0.951131   -3.126656   -1.975056
H      -0.922202   -1.712663   -2.205473
H      -2.095972   -0.928746    0.152398
H       1.466228   -0.386411   -1.853319
