21

C       0.218239    1.389114   -0.407557
C       0.029053    0.061524    0.348855
C      -1.325632   -0.472267    0.255432
C      -2.447445   -0.905811    0.165360
C      -3.797778   -1.406418    0.081422
C      -4.371043   -1.777894   -1.278686
C      -4.039941   -2.850830   -0.271956
O      -4.699768   -0.899662    1.026576
C      -4.955561    0.486348    0.885634
H       1.247950    1.744556   -0.304448
H       0.001121    1.264420   -1.471905
H      -0.452569    2.158335   -0.015215
H       0.736011   -0.684466   -0.037029
H       0.290773    0.200312    1.405834
H      -5.418685   -1.543440   -1.430214
H      -3.737557   -1.664745   -2.150409
H      -3.174768   -3.479698   -0.442849
H      -4.865214   -3.322630    0.248564
H      -4.039994    1.079303    1.009324
H      -5.393624    0.718516   -0.095894
H      -5.667742    0.755286    1.668863
