19

C      -0.089691    1.561737    0.117133
C       0.165154    0.092369   -0.185032
C       1.513421   -0.305622   -0.900697
C       1.837716   -1.214271    0.291562
N       1.853943   -0.348807    1.495859
C       0.565659   -0.821089    0.988005
C       2.484148   -2.548582    0.392881
N       2.909657   -3.090621   -0.784661
O       2.593312   -3.123702    1.464719
H       0.734890    1.977116    0.702171
H      -0.186818    2.141879   -0.806871
H      -1.014894    1.689921    0.689797
H      -0.678967   -0.344468   -0.726790
H       1.337310   -0.842519   -1.836433
H       2.227720    0.504700   -1.068342
H       2.117123   -0.975403    2.259733
H      -0.075885   -1.447708    1.596184
H       2.963988   -2.542076   -1.624932
H       3.429423   -3.951960   -0.739532
