16

O       0.363966    0.787497    0.813954
C      -0.086860    0.137391   -0.364839
C      -1.413212   -0.465259   -0.232227
C      -2.519298   -0.931361   -0.117595
C      -3.847144   -1.498301    0.087234
O      -3.803014   -2.840449    0.591661
C      -4.701423   -0.637260    1.038357
O      -5.948494   -1.249755    1.256688
H      -0.305580    1.432939    1.063779
H      -0.087612    0.820416   -1.229223
H       0.655492   -0.639282   -0.579190
H      -4.379296   -1.577275   -0.867989
H      -3.105635   -2.874847    1.256878
H      -4.140803   -0.488550    1.977188
H      -4.881552    0.347106    0.595275
H      -5.752170   -2.182689    1.416063
