18

O      -0.150725    1.423269    0.179089
C      -0.159377    0.032276    0.065932
C      -0.411301   -0.805378    1.277247
C      -1.449099   -0.130503    2.183225
C      -2.463128   -0.106116    0.997043
C      -1.419260   -0.788463    0.101155
C      -1.729474   -1.845527   -0.934687
C      -2.372091   -1.272133   -2.121617
N      -2.873758   -0.787514   -3.043109
H      -0.483434    1.794289   -0.645459
H       0.608412   -0.372335   -0.596720
H       0.282035   -1.581623    1.581504
H      -1.779565   -0.776670    2.998255
H      -1.153155    0.839231    2.587641
H      -3.333964   -0.740161    1.179921
H      -2.805381    0.876310    0.662895
H      -0.811389   -2.354483   -1.250871
H      -2.390143   -2.617733   -0.521487
