19

C       0.608129    1.104559    0.308972
C      -0.236689   -0.144740    0.208796
O      -0.772994   -0.653387    1.166022
C      -0.371018   -0.784242   -1.179928
C       0.113646   -2.232044   -1.144373
C       0.084415   -3.141279   -2.415812
C       1.538240   -3.621384   -2.111122
C       1.633028   -2.450753   -1.121410
O       2.538084   -1.818415   -0.653925
H       1.640076    0.839061    0.049629
H       0.276670    1.859302   -0.413015
H       0.571982    1.508575    1.321267
H      -1.434253   -0.759670   -1.448112
H       0.178110   -0.211552   -1.934116
H      -0.347925   -2.740292   -0.289991
H      -0.688441   -3.910066   -2.437621
H       0.032692   -2.556873   -3.337757
H       1.568361   -4.586602   -1.595465
H       2.270085   -3.633416   -2.921776
