16

C      -0.008358    1.540810   -0.033221
O       1.354491    1.969262    0.065261
C       2.050543    0.957317    0.810258
C       1.634223    1.068570    2.274137
C       0.645483    0.212892    2.541863
C       0.365883   -0.673055    1.369162
C       0.018746    0.013928    0.034283
C       1.430830   -0.379457    0.349025
H      -0.607288    1.978305    0.777323
H      -0.404542    1.899500   -0.988043
H       3.115358    1.086448    0.609081
H       1.983654    1.868160    2.915757
H       0.073747    0.169949    3.461951
H      -0.011909   -1.678252    1.519030
H      -0.569534   -0.549739   -0.680963
H       1.994095   -1.129923   -0.189209
