15

N      -0.042119    1.115201    0.754013
C      -0.000442    0.010439    0.147910
N       0.984930   -0.794113   -0.439618
C       0.081765   -1.904102   -0.767996
C      -0.280012   -2.835710    0.422643
O      -1.299641   -1.931273    0.893003
C      -1.084896   -1.013482   -0.192239
C       0.194053   -2.466036   -2.088317
C       0.285704   -2.965108   -3.178099
H       0.887848    1.515681    0.891237
H       1.955901   -0.877651   -0.167740
H      -0.710997   -3.794724    0.115959
H       0.520166   -2.997932    1.153637
H      -1.995144   -0.716223   -0.711179
H       0.364216   -3.393888   -4.146870
