22

C      -0.799705    1.071205   -0.015020
C      -0.020623   -0.228762   -0.116667
C       1.376081   -0.244886   -0.823678
O       2.107686    0.951604   -0.681817
C       1.798090   -1.358004    0.179442
C       0.678570   -0.857202    1.130649
N       1.215344    0.178671    2.012405
C       0.424446    0.522467    3.190172
C       1.682724   -0.261971    3.324184
H      -0.177161    1.878668    0.376192
H      -1.157103    1.380012   -1.003076
H      -1.673709    0.963962    0.636838
H      -0.643104   -1.008646   -0.570917
H       1.389939   -0.492270   -1.888279
H       2.124529    1.141640    0.268837
H       1.588810   -2.361901   -0.199751
H       2.823843   -1.312853    0.552937
H       0.109748   -1.615370    1.692615
H       0.399057    1.574974    3.455642
H      -0.513182   -0.009476    3.339054
H       1.589110   -1.319740    3.562527
H       2.589870    0.210134    3.689062
