21

C      -0.071894    1.563474    0.012883
C       0.001139    0.064791   -0.041100
C       0.758910   -0.737145   -1.104288
C      -0.326729   -1.865900   -1.013192
C       0.165764   -3.203116   -0.453177
C       0.808401   -3.029616    0.901950
C       0.637813   -1.925144    1.632045
C      -0.239677   -0.809478    1.194398
C      -1.110494   -0.978731   -0.021151
H       0.889495    1.999925    0.310843
H      -0.334609    1.983073   -0.965740
H      -0.824803    1.901273    0.732959
H       0.745401   -0.235401   -2.075931
H       1.788678   -1.025749   -0.869072
H      -0.849857   -2.010024   -1.961188
H      -0.661591   -3.926537   -0.392637
H       0.890945   -3.644782   -1.150491
H       1.436131   -3.837062    1.269671
H       1.135379   -1.822922    2.593160
H      -0.701086   -0.244053    1.999962
H      -2.186218   -0.846432    0.007335
