18

C      -0.002164    1.323893   -0.087478
O      -0.027408   -0.082393   -0.168596
C      -1.310578   -0.625323    0.071070
C      -1.196789   -2.115679    0.043525
N      -2.198829   -2.970439   -0.030036
C      -1.620054   -4.215768    0.012954
N      -2.425161   -5.360020    0.018751
C      -0.251610   -4.111665    0.107743
N      -0.005133   -2.746003    0.130480
H       1.024192    1.643732   -0.281502
H      -0.666360    1.784794   -0.834386
H      -0.305629    1.679470    0.909372
H      -1.692954   -0.285120    1.049396
H      -2.036658   -0.293857   -0.687571
H      -3.341661   -5.146424   -0.353714
H      -2.019481   -6.138848   -0.482755
H       0.538686   -4.840120    0.159181
H       0.883850   -2.276344    0.153095
