19

C       0.066361    1.552723    0.009738
C      -0.000573    0.053585    0.019522
C      -0.954173   -0.752778    0.862175
C       0.538369   -0.931145    1.040507
C       1.246527   -1.747278   -0.070375
C       0.385953   -2.228340   -1.220423
O      -0.890634   -2.808299   -1.176310
C       0.691489   -0.772454   -1.119535
O       1.417594   -0.113202   -2.100279
H       1.062036    1.903935   -0.278620
H      -0.654211    1.985471   -0.696027
H      -0.166386    1.952661    1.001951
H      -1.415902   -0.172582    1.658214
H      -1.577728   -1.528161    0.442470
H       1.034864   -0.706643    1.976466
H       2.260405   -2.111763    0.043282
H       1.026432   -2.667377   -1.990937
H      -0.803442   -3.670493   -0.754504
H       0.830443    0.054027   -2.846822
