8

O      -0.096189   -0.039453    0.002693
C      -0.017052    1.167409    0.007788
C       1.224809    1.897060    0.000058
C       2.255678    2.537646   -0.006136
C       3.409536    3.251156   -0.013029
C       4.436168    3.887215   -0.018992
H      -0.918712    1.811586    0.019185
H       5.340200    4.445503   -0.024252
