13

N       0.369077    1.289217   -0.584053
C       0.212392    0.059585   -0.310749
N      -1.047041   -0.466937    0.009593
C      -1.182031   -1.830683    0.306265
N      -0.184662   -2.615766    0.293477
C      -2.171561    0.370232    0.033326
N      -3.325594   -0.074473    0.319177
H       1.347593    1.479751   -0.788916
H       0.978386   -0.715137   -0.285785
H      -2.217994   -2.081218    0.533310
H      -0.479877   -3.559762    0.533242
H      -1.901609    1.395578   -0.218401
H      -4.008931    0.678936    0.284475
