13

N      -0.043974    1.362128    0.135269
C      -0.023756    0.085346    0.029935
N      -1.165182   -0.653556   -0.023491
C      -2.464830   -0.009313    0.125502
C      -3.537457   -0.989798    0.038616
C      -4.411514   -1.810378   -0.027733
C       1.197866   -0.700905   -0.057844
N       2.190966   -1.289746   -0.118994
H       0.895735    1.749097    0.132471
H      -1.116504   -1.656692    0.023061
H      -2.510353    0.529924    1.082108
H      -2.572822    0.756298   -0.652825
H      -5.195102   -2.525155   -0.087647
