15

O       0.095355    1.443629   -0.169882
C      -0.080501    0.062388   -0.004397
C      -0.495488   -0.725179    1.225393
N      -1.606730   -0.227647    2.120112
C      -2.099043    1.108156    1.690558
C      -2.475000   -0.085481    0.904967
C      -1.381279   -0.659098   -0.022266
O      -1.681765   -1.663335   -0.922752
H       0.913981    1.689366    0.276125
H       0.654222   -0.534782   -0.552426
H       0.126838   -1.516018    1.626973
H      -2.850547    1.483559    2.381021
H      -1.418629    1.842352    1.286622
H      -3.470168   -0.519078    0.893713
H      -1.859932   -1.257626   -1.779185
