20

C       0.035646    1.418722    0.122363
O      -0.026588    0.024961   -0.151894
C      -1.307843   -0.552172   -0.072874
C      -2.267560   -0.050347   -1.144565
C      -1.204111   -2.116753    0.063385
C       0.185421   -2.731088    0.073431
N      -1.840743   -1.960842    1.382063
C      -1.912999   -0.595298    1.370808
O      -2.295004    0.219107    2.173044
H       1.096644    1.669676    0.190534
H      -0.413092    2.015801   -0.683025
H      -0.460336    1.664928    1.067421
H      -1.815773   -0.158041   -2.135963
H      -3.201897   -0.618896   -1.120169
H      -2.518260    1.002008   -0.986136
H      -1.852142   -2.640899   -0.649424
H       0.843783   -2.193669    0.757956
H       0.136232   -3.782625    0.376082
H       0.624503   -2.687784   -0.927745
H      -2.091845   -2.635356    2.090516
