15

C       0.092520    1.435570    0.089205
N      -0.202770    0.033819   -0.156167
C       0.511398   -0.657162   -1.109833
C       0.693443   -2.018496   -1.216872
O       1.416984   -2.288818   -2.344626
N       1.721414   -1.111250   -2.976401
C       1.192229   -0.151364   -2.254282
C       0.274253   -3.068101   -0.390418
C      -0.104080   -3.936937    0.355690
H       1.136938    1.621108    0.382922
H      -0.120960    2.027227   -0.806919
H      -0.562285    1.798503    0.884068
H      -0.388471   -0.509079    0.674674
H       1.312474    0.874158   -2.571138
H      -0.436389   -4.713261    0.999676
