21

C      -0.053729    1.398510   -0.127035
O      -0.012924    0.013963    0.119150
C      -1.280214   -0.626502    0.044535
C      -1.677612   -0.936468   -1.426269
C      -1.277823   -2.381905   -1.600377
C      -1.001394   -2.965418   -0.436991
C      -1.164168   -2.016170    0.727710
C      -0.065535   -2.114782    1.784732
O      -0.193465   -3.397957    2.389859
H       0.963797    1.779215   -0.007249
H      -0.396800    1.637527   -1.144879
H      -0.714464    1.917637    0.585766
H      -2.026197    0.007154    0.545805
H      -2.755880   -0.798283   -1.587213
H      -1.169623   -0.260329   -2.123248
H      -1.252791   -2.867233   -2.569836
H      -0.716145   -3.999634   -0.288739
H      -2.108795   -2.238340    1.245848
H       0.917471   -1.987043    1.315459
H      -0.186274   -1.310687    2.526524
H       0.559632   -3.527314    2.973071
