18

O       0.085389    1.444217   -0.142940
C       0.017036    0.051045    0.028743
C       0.229584   -0.580385    1.442641
C      -0.347953    0.371713    2.495337
C      -1.842475    0.202407    2.321462
C      -2.179318   -1.167088    1.901155
C      -0.939594   -1.599212    1.099186
C      -1.373808   -0.577013    0.017731
N      -2.425857   -0.005045    0.958568
H       1.011288    1.701614   -0.196807
H       0.632139   -0.477134   -0.716041
H       1.220224   -0.972244    1.677096
H      -0.065099    0.082486    3.514328
H      -0.015112    1.398854    2.321861
H      -2.523576    0.761408    2.955634
H      -2.981048   -1.789997    2.281883
H      -0.704595   -2.641824    0.903142
H      -1.850350   -0.839343   -0.927483
