23

C       0.299711    1.432218    0.499560
C       0.328141   -0.047007    0.125580
C       0.418031   -0.303851   -1.372948
O       0.356986    0.599071   -2.180553
C       0.623922   -1.742480   -1.797789
C       0.325226   -2.117236   -3.269327
C       1.645090   -2.928562   -3.320026
C       2.121426   -2.216508   -2.020072
C       3.145069   -1.109645   -2.254421
H       1.212791    1.936165    0.171244
H      -0.539349    1.937603    0.015358
H       0.205802    1.558325    1.581853
H       1.164084   -0.570893    0.610378
H      -0.572363   -0.563959    0.488336
H       0.132947   -2.413502   -1.086292
H      -0.604806   -2.657918   -3.457727
H       0.348672   -1.224448   -3.897587
H       1.485659   -3.999997   -3.171065
H       2.277849   -2.793820   -4.201650
H       2.481332   -2.887993   -1.235138
H       2.799506   -0.392513   -3.004980
H       3.357656   -0.550193   -1.336570
H       4.088512   -1.541605   -2.605558
