24

C       0.005739    1.588396   -0.060384
C      -0.015530    0.057691   -0.078780
C      -1.423659   -0.528856    0.069640
C      -1.443525   -2.059687    0.058137
C      -2.851628   -2.646269    0.204769
C      -2.827830   -4.164822    0.366627
O      -1.971617   -4.735835    1.020424
N      -3.846639   -4.826484   -0.258314
C      -4.014472   -6.263568   -0.173799
H       1.023585    1.976082   -0.168514
H      -0.596580    2.003111   -0.876632
H      -0.400714    1.978880    0.879374
H       0.429484   -0.304330   -1.015101
H       0.621799   -0.328941    0.727152
H      -1.870710   -0.165845    1.006169
H      -2.062809   -0.142988   -0.737691
H      -0.994015   -2.427000   -0.873813
H      -0.825720   -2.456935    0.869864
H      -3.325226   -2.236218    1.107393
H      -3.486703   -2.351441   -0.639911
H      -4.517307   -4.290497   -0.782560
H      -4.962884   -6.530373    0.306654
H      -3.982353   -6.728888   -1.165423
H      -3.190099   -6.648617    0.427491
