14

O       0.062732    1.428990    0.087014
C       0.049741    0.026423   -0.072769
C      -1.350175   -0.533270   -0.124767
C      -1.880995   -1.284691   -1.110713
C      -3.246366   -1.753089   -0.991710
O      -3.850904   -2.446544   -1.791865
C      -3.885706   -1.276620    0.260983
N      -3.356580   -0.554619    1.181127
O      -2.028117   -0.178306    0.989287
H      -0.383168    1.634122    0.916211
H       0.553352   -0.195647   -1.016431
H       0.601259   -0.483004    0.733589
H      -1.297313   -1.534811   -1.987786
H      -4.920627   -1.554096    0.444758
