16

C       0.187635    1.489169   -0.007230
C      -0.019586   -0.050058    0.002269
C       0.643699   -0.678476    1.258207
C      -1.469268   -0.337260    0.032765
N      -2.604006   -0.547328    0.081903
C       0.564302   -0.634430   -1.209161
C       1.096782   -1.094572   -2.189345
C       1.693023   -1.661695   -3.375759
O       2.866368   -1.575952   -3.652220
H       1.257501    1.708636   -0.025674
H      -0.280811    1.939538   -0.884138
H      -0.254028    1.924608    0.892482
H       0.202986   -0.247542    2.160550
H       0.497541   -1.759947    1.275572
H       1.715127   -0.466436    1.244097
H       0.976351   -2.195249   -4.031059
