20

O       1.943243   -0.612343    0.220848
C       1.612522    0.391159   -0.353731
C       1.911762    1.799204    0.153190
N       1.766635    2.757312   -0.927346
C       1.389579    4.154252   -0.745041
C       1.520024    4.804899    0.622874
C       2.973556    4.530825    1.088353
C       3.779207    4.190682   -0.192809
C       2.752724    3.786238   -1.240344
H       1.046913    0.374760   -1.311726
H       1.193735    2.001293    0.961791
H       2.907731    1.778329    0.612429
H       0.598805    4.502421   -1.405581
H       1.336976    5.879432    0.507119
H       0.777836    4.439885    1.342232
H       3.397615    5.389472    1.614867
H       2.998301    3.696186    1.792728
H       4.315928    5.070108   -0.566576
H       4.536163    3.418130   -0.015125
H       3.036007    3.849059   -2.288380
