21

C      -0.043627    1.501299    0.038108
C      -0.038043    0.005608   -0.020785
C      -0.010748   -0.763291   -1.113598
C      -0.007059   -2.247124   -0.793247
O       1.004517   -2.987246   -1.468644
C       0.081573   -2.263114    0.734636
C       1.285070   -1.610235    1.383015
C      -0.013784   -0.838741    1.232412
C      -0.814850   -0.424640    2.444283
H       0.821711    1.878643    0.597969
H      -0.022780    1.940335   -0.962551
H      -0.935160    1.877898    0.554631
H       0.040255   -0.405262   -2.136304
H      -0.939274   -2.723972   -1.122224
H       1.854176   -2.648438   -1.165059
H      -0.394408   -3.073697    1.274153
H       1.549625   -1.965766    2.374376
H       2.133300   -1.309514    0.774741
H      -0.467175    0.532969    2.848712
H      -1.878651   -0.317478    2.202766
H      -0.727790   -1.168546    3.242019
