21

C      -0.063953    1.568223   -0.171508
C       0.162582    0.064091   -0.045951
C       0.813710   -0.561441   -1.270716
O       1.245721    0.094306   -2.189272
C       0.863478   -2.096097   -1.294228
C      -0.429854   -2.659687   -1.969645
C       0.127522   -3.562119   -3.088565
C       1.507073   -2.948012   -3.340004
O       1.965288   -2.566586   -2.046605
H       0.877109    2.083227   -0.378058
H      -0.744480    1.794276   -0.997039
H      -0.491168    1.975669    0.748899
H       0.809433   -0.167683    0.812892
H      -0.775333   -0.471873    0.157758
H       0.976882   -2.471738   -0.270077
H      -1.057904   -3.201092   -1.259674
H      -1.030068   -1.848845   -2.393624
H       0.236686   -4.590837   -2.732282
H      -0.507445   -3.572717   -3.977733
H       2.235093   -3.649400   -3.756180
H       1.441808   -2.070779   -3.997804
