20

C       0.024506    1.563781    0.078878
C      -0.021450    0.036993   -0.023319
C       0.740479   -0.513507   -1.231572
O       2.120738   -0.100655   -1.208393
C       0.621271   -2.038110   -1.358674
C       1.300723   -2.582748   -2.634187
O       2.697250   -2.389345   -2.644538
C       1.039348   -4.027789   -2.764133
N       0.791454   -5.152024   -2.855238
H       1.055974    1.923541    0.116572
H      -0.456918    2.029866   -0.787434
H      -0.493592    1.911342    0.976925
H       0.394033   -0.416790    0.888571
H      -1.061057   -0.306201   -0.083285
H       0.345937   -0.048561   -2.144747
H       2.491337   -0.364754   -0.356973
H       1.071993   -2.525820   -0.485372
H      -0.438398   -2.315547   -1.375440
H       0.827756   -2.098814   -3.507364
H       2.834834   -1.480524   -2.331543
