19

O      -0.057209    1.445557    0.019486
C      -0.003721    0.026158    0.000381
C       0.677795   -0.583118    1.248399
C       0.005387   -1.969034    1.448645
C       0.058039   -2.458580    2.821396
C       0.100314   -2.855243    3.955729
C      -1.410259   -1.778090    0.886057
C      -2.163734   -0.542539    1.296854
C      -1.402723   -0.558372   -0.006012
H       0.843279    1.778578   -0.048717
H       0.516257   -0.316441   -0.909071
H       1.762934   -0.666385    1.146712
H       0.478869    0.063588    2.106721
H       0.516220   -2.699300    0.806377
H       0.134425   -3.208516    4.956340
H      -1.969446   -2.669607    0.627073
H      -3.244851   -0.585698    1.228964
H      -1.800263    0.062010    2.120100
H      -1.959125   -0.533343   -0.935780
