13

N       0.087618    1.357983   -0.298170
C       0.030812    0.133965    0.082277
C      -1.255640   -0.477459    0.397156
C      -1.501060   -1.687167    0.923670
O      -0.647317   -2.585182    1.473493
C       0.650834   -2.208804    1.831329
O       1.028970   -2.412012    2.940811
N       1.466788   -1.766268    0.798321
C       1.229172   -0.754046    0.068990
H       1.042567    1.614673   -0.562398
H      -2.120163    0.106510    0.102643
H      -2.514963   -2.065247    0.994644
H       1.989267   -0.493133   -0.673597
