26

C      -0.365307   -3.021041    2.582385
C       0.941189   -3.315228    1.838932
C       0.798173   -3.180474    0.317992
C       2.100482   -3.378044   -0.484727
C       2.674043   -4.796764   -0.335536
C       1.835365   -3.070311   -1.951193
C       1.849477   -1.675098   -2.477468
N       2.854761   -2.638679   -2.912277
C       4.227195   -2.411749   -2.487480
H      -0.715477   -2.002376    2.381458
H      -1.159932   -3.708858    2.272225
H      -0.241212   -3.123218    3.665052
H       1.724620   -2.630330    2.190865
H       1.281255   -4.324896    2.097264
H       0.045030   -3.897545   -0.039791
H       0.397973   -2.184171    0.088682
H       2.837087   -2.661929   -0.098889
H       2.923822   -5.028196    0.703566
H       1.949294   -5.544325   -0.680062
H       3.583462   -4.921091   -0.930678
H       1.121817   -3.763168   -2.401412
H       1.138090   -1.345018   -3.230709
H       2.165568   -0.894497   -1.783953
H       4.706487   -1.743952   -3.210962
H       4.336357   -1.955691   -1.490759
H       4.775256   -3.359575   -2.493233
