19

C      -0.275084    1.490748   -0.002497
N       0.041430    0.068162    0.077630
C       1.339868   -0.469138   -0.304979
C       2.538288    0.457215   -0.352757
O       2.537560    1.179676    0.876378
C       1.829448    0.433145    1.860803
C       0.884598   -0.505739    1.121350
C       0.363634   -1.720991    1.848338
H       0.542935    2.167553    0.271977
H      -0.587504    1.716775   -1.027215
H      -1.130066    1.690280    0.651554
H       1.333319   -1.339398   -0.957405
H       3.458624   -0.137704   -0.471079
H       2.505286    1.194013   -1.163874
H       2.517818   -0.159603    2.484952
H       1.318343    1.151595    2.513216
H      -0.254075   -1.431210    2.706569
H      -0.256750   -2.321463    1.179540
H       1.184573   -2.342195    2.223082
