23

C       0.046320    1.509171   -0.254370
C       0.067426    0.012028   -0.040717
C       1.368743   -0.753311   -0.047973
C       0.578413   -0.618267    1.234515
C       1.135783    0.206723    2.414972
C       0.630610   -0.519721    3.678235
C       0.458646   -1.980201    3.227352
O      -0.401757   -2.758605    4.040978
C      -0.139461   -1.833739    1.825732
H       0.937127    1.989229    0.162482
H       0.015430    1.749654   -1.322890
H      -0.829973    1.971949    0.214663
H      -0.778111   -0.506030   -0.489880
H       1.405339   -1.723148   -0.534978
H       2.286276   -0.177000   -0.135934
H       2.231210    0.216684    2.390239
H       0.811996    1.251376    2.394460
H       1.301628   -0.405711    4.535897
H      -0.356201   -0.145916    3.976090
H       1.450841   -2.456240    3.151620
H       0.004173   -2.842364    4.909270
H      -1.214162   -1.642433    1.942856
H      -0.030631   -2.737056    1.219241
