14

C      -0.038023    1.541948    0.007723
C      -0.012486    0.047144   -0.016576
C      -0.029038   -0.796698   -1.104433
N       0.007366   -2.064619   -0.617992
N       0.046542   -2.123297    0.718380
C       0.035104   -0.838228    1.100907
C       0.067460   -0.465228    2.467810
C       0.093484   -0.093237    3.612418
H       0.848386    1.948577    0.506532
H      -0.072751    1.953373   -1.004545
H      -0.909723    1.917839    0.554306
H      -0.062861   -0.593842   -2.163455
H       0.006766   -2.925146   -1.138872
H       0.116847    0.217175    4.627414
