16

C      -0.273995    1.605106   -0.102703
N      -0.361285    0.164365   -0.122412
C       0.356605   -0.517170   -0.915312
N       0.312341   -1.920901   -0.926299
C       0.020402   -2.753175    0.165978
N      -0.004501   -4.089974   -0.220839
O      -0.128359   -2.385788    1.304042
C       1.264105    0.006946   -1.911553
C       2.006437    0.431920   -2.758196
H       0.412797    2.037792   -0.842624
H      -1.275598    2.020444   -0.263930
H       0.039377    1.926267    0.897721
H       0.792246   -2.354738   -1.699073
H      -0.380384   -4.303354   -1.133060
H      -0.347353   -4.691410    0.513464
H       2.667722    0.817037   -3.495650
