23

C      -0.553817    1.394917    0.051413
C      -0.031411   -0.056657    0.063211
C       0.501560   -0.453747   -1.328108
C       1.045295   -1.892430   -1.457802
C       2.521993   -2.132507   -1.256643
C       3.433519   -1.408295   -0.607278
C       3.205017   -0.124288    0.173239
C       2.217468   -0.282917    1.310709
C       0.886753   -0.267667    1.247116
H       0.263271    2.098506   -0.141275
H      -1.313932    1.534234   -0.725110
H      -1.000902    1.662918    1.013874
H      -0.903252   -0.702948    0.246712
H      -0.344112   -0.351847   -2.019099
H       1.247899    0.262418   -1.684260
H       0.481274   -2.555917   -0.784003
H       0.806054   -2.255611   -2.465687
H       2.875916   -3.048429   -1.728837
H       4.455434   -1.780750   -0.605123
H       4.162561    0.202221    0.589752
H       2.888951    0.681160   -0.496562
H       2.667009   -0.462255    2.285395
H       0.351490   -0.398384    2.187460
