21

C       0.157792    1.555885    0.060828
O       1.267955    0.645944    0.009057
C      -0.039152    0.106761    0.013354
C      -0.609065   -0.820133    1.087472
C      -1.542668   -1.411092   -0.015918
C      -1.921520   -2.910803    0.017352
C      -3.307979   -2.515480    0.595256
C      -3.052776   -1.065020    0.103543
C      -0.652518   -0.743376   -1.099391
H       0.037838    2.090607    1.002715
H       0.004724    2.155072   -0.836372
H       0.141687   -1.543793    1.422504
H      -1.079012   -0.362652    1.962616
H      -2.004544   -3.326515   -0.992321
H      -1.286388   -3.572244    0.613576
H      -4.185827   -3.033141    0.202556
H      -3.327903   -2.579442    1.686604
H      -3.330719   -0.241817    0.768049
H      -3.501363   -0.885012   -0.878924
H      -1.159263   -0.227826   -1.920257
H       0.081770   -1.441449   -1.516104
