23

C      -0.141628    1.544381    0.062266
C       0.096524    0.040944   -0.056686
C       1.208408   -0.363843   -1.036146
C       1.464306   -1.841471   -0.705554
O       2.775881   -2.290551   -1.057854
C       1.237893   -1.968888    0.835528
C       2.524686   -2.225999    1.634336
O       3.084847   -3.499986    1.395713
C       0.553441   -0.640766    1.249967
H       0.772855    2.060318    0.377619
H      -0.457490    1.978297   -0.892513
H      -0.919826    1.765015    0.800690
H      -0.838418   -0.434905   -0.386535
H       0.950135   -0.194634   -2.087285
H       2.122147    0.205779   -0.819922
H       0.721797   -2.462965   -1.226327
H       2.861045   -2.262710   -2.015133
H       0.576435   -2.819716    1.025138
H       3.249040   -1.419859    1.432573
H       2.287358   -2.183584    2.703754
H       3.301200   -3.507124    0.454753
H       1.284888    0.009358    1.750470
H      -0.267085   -0.792953    1.956913
