17

C       0.161355    1.579305    0.046517
C       0.021506    0.091847    0.109485
C      -0.879146   -0.660561    1.042737
C       0.598256   -0.961760    1.037660
C       1.057759   -1.705209   -0.220075
C       0.046941   -2.048924   -1.257990
C      -1.297685   -2.546256   -1.107365
N      -2.359251   -3.006834   -1.086116
N       0.527492   -0.644642   -1.139356
H       1.155831    1.864916   -0.309477
H      -0.577406    2.005918   -0.641806
H       0.002161    2.022907    1.033714
H      -1.177558   -0.053374    1.893229
H      -1.634581   -1.371931    0.742402
H       1.233547   -0.847941    1.905562
H       2.074255   -2.071793   -0.330891
H       0.496724   -2.482735   -2.150595
