19

C       0.032496    1.499415    0.188890
C       0.009082   -0.005814    0.111877
N      -0.172820   -0.763335    1.128364
O      -0.367693   -0.020398    2.300332
C       0.175806   -0.689498   -1.212611
C       1.143096   -0.051984   -2.207597
O       0.533157    1.006653   -2.923153
C      -0.130690   -2.136332   -1.329745
N      -1.055975   -1.151879   -1.918853
H       0.108487    1.943005   -0.802950
H      -0.873020    1.858600    0.687742
H       0.873100    1.832802    0.807263
H      -0.475183   -0.711114    2.962903
H       2.011846    0.369314   -1.692187
H       1.507625   -0.829207   -2.895059
H      -0.306468    0.641490   -3.234748
H       0.417139   -2.734138   -2.052620
H      -0.437246   -2.657063   -0.430238
H      -1.856210   -1.038688   -1.300416
