18

C      -0.022453    1.554684    0.136139
C       0.044471    0.044034    0.171017
C       1.282813   -0.732300   -0.165646
O       2.463434   -0.031300    0.232032
C       2.060492   -0.122129    1.626351
C       0.738388   -0.789113    1.249369
C       0.064835   -1.879688    2.023446
O      -0.606814   -1.398579    3.182717
H       0.966196    1.989924    0.297494
H      -0.377004    1.898312   -0.841256
H      -0.704759    1.950016    0.896376
H      -0.853790   -0.463225   -0.181154
H       1.378630   -1.477583   -0.948058
H       2.732380   -0.792692    2.174849
H       2.031919    0.855410    2.119994
H      -0.621221   -2.433557    1.362053
H       0.803992   -2.597875    2.396532
H      -1.241162   -0.735308    2.891027
