12

N       0.019304    1.330782    0.124547
C      -0.008701   -0.036337    0.024060
N      -1.127966   -0.756857    0.041374
C      -0.651308   -2.031815    0.026420
C       0.719100   -2.094407   -0.009648
N       1.157270   -0.774472   -0.039041
N       1.110617   -3.374922   -0.078009
N       0.098422   -4.133286   -0.064041
O      -1.149565   -3.244490   -0.001874
H       0.725638    1.806526   -0.418357
H      -0.899225    1.738468    0.019591
H       2.083611   -0.425258    0.137734
