16

N      -0.044876   -0.996624   -0.856308
C      -0.035820    0.039168   -0.345430
C      -0.009210    1.344847    0.313906
C       1.383667    1.951550    0.342731
O       1.809801    2.624384   -0.849592
C       1.580134    3.399044    0.308015
C       0.607712    4.571656    0.411048
O       1.597706    5.330344    1.138102
C       2.604977    4.304972    0.981371
H      -0.694761    2.021590   -0.205891
H      -0.378886    1.225196    1.339652
H       2.148711    1.327370    0.804788
H       0.352760    5.026744   -0.554286
H      -0.306884    4.415893    0.996634
H       3.010805    3.970421    1.943050
H       3.424492    4.617338    0.322304
