21

C      -0.325647    1.323595    0.189618
C       0.136079   -0.128210    0.100843
C       0.760383   -0.523035   -1.253137
C       1.586946   -1.801736   -0.966462
C       1.760907   -1.862532    0.572414
C       1.247319   -0.514206    1.092293
O       0.919643   -2.918919    1.090025
C       1.457649   -3.819090    1.928071
O       0.827083   -4.704831    2.424141
H       0.510469    2.012443    0.018903
H      -1.094209    1.542151   -0.559124
H      -0.748562    1.549474    1.174077
H      -0.720816   -0.787828    0.291001
H       0.011152   -0.674441   -2.034796
H       1.419133    0.285304   -1.594435
H       1.066945   -2.706029   -1.290791
H       2.555559   -1.785924   -1.472976
H       2.793242   -2.068814    0.874729
H       2.060580    0.222159    1.038336
H       0.919331   -0.575419    2.133335
H       2.539926   -3.652630    2.100338
