22

C       1.053623    0.652567    0.259383
C      -0.052380   -0.337934   -0.111293
N       0.347372   -1.260064   -1.159279
C      -0.199656   -1.253384   -2.398893
O      -1.092020   -0.510101   -2.769820
C       0.386814   -2.287038   -3.361371
O       1.416258   -3.034995   -2.754778
C       1.991822   -4.009684   -3.606448
C       3.074319   -4.747638   -2.838391
H       1.951918    0.133402    0.611314
H       1.331066    1.264023   -0.604078
H       0.716987    1.318596    1.060242
H      -0.360643   -0.906947    0.775027
H      -0.931256    0.188434   -0.490203
H       1.091851   -1.921430   -0.999220
H      -0.437845   -2.935429   -3.695534
H       0.751399   -1.745490   -4.247706
H       1.213955   -4.709399   -3.953180
H       2.411782   -3.523078   -4.501873
H       3.537352   -5.509225   -3.472506
H       3.852099   -4.053777   -2.506771
H       2.652915   -5.240112   -1.957379
