21

C      -0.124421    1.626358   -0.085575
C      -0.032339    0.096628   -0.065719
C      -1.426588   -0.543197   -0.006520
O      -2.123558   -0.166775    1.163146
C       0.770333   -0.442525   -1.258294
O       2.143311   -0.097071   -1.157640
C       2.711264   -0.638510    0.024047
C       1.981047   -0.108233    1.251651
O       0.589051   -0.369958    1.153085
H       0.864273    2.086513   -0.139655
H      -0.689677    1.955108   -0.963542
H      -0.645774    1.978862    0.806350
H      -2.029200   -0.214748   -0.859955
H      -1.313963   -1.637116   -0.067611
H      -1.515071   -0.342390    1.891606
H       0.663180   -1.538796   -1.307551
H       0.408686   -0.013542   -2.197345
H       2.650849   -1.739278    0.002891
H       3.765045   -0.344402    0.036419
H       2.326522   -0.612408    2.159937
H       2.172530    0.968647    1.363047
