20

C       0.049218    1.500338    0.013371
C       0.279081    0.000206    0.044485
O       0.381794   -0.460692   -1.301660
C       0.607718   -1.834196   -1.395397
C       0.853152   -2.321130   -2.849094
N       2.165724   -2.797143   -2.402752
C       3.249427   -3.435090   -3.101795
C       2.062257   -2.330365   -1.117704
O       2.834598   -2.318934   -0.191736
H       0.887772    2.007301   -0.472252
H      -0.863917    1.739774   -0.539251
H      -0.047957    1.889021    1.031354
H       1.194812   -0.250013    0.595445
H      -0.559048   -0.513016    0.544811
H      -0.152355   -2.412270   -0.848148
H       0.186483   -3.108846   -3.216001
H       0.896324   -1.497302   -3.569088
H       3.611948   -2.817578   -3.933118
H       4.064476   -3.578196   -2.388198
H       2.950795   -4.412171   -3.500628
