21

C       0.039396    1.478438   -0.324108
C      -0.054259    0.030726    0.099916
N       1.189498   -0.755476    0.088614
C       0.501595   -0.529043    1.368162
C       1.247030    0.288679    2.405887
O       0.334007    0.872314    3.332210
C       2.204089   -0.588592    3.191729
C       2.625316   -0.228018    4.563268
N       1.711446   -1.368838    4.337483
H       0.958483    1.944630    0.037113
H       0.039911    1.553764   -1.416570
H      -0.816351    2.054661    0.046676
H      -0.949952   -0.475060   -0.260646
H       1.024266   -1.700311   -0.245543
H      -0.045004   -1.366034    1.802067
H       1.834712    1.064470    1.893655
H      -0.357354    1.310586    2.827345
H       2.900275   -1.124720    2.550771
H       3.618239   -0.497278    4.912254
H       2.209751    0.676822    4.994904
H       0.766810   -1.047794    4.543659
