21

C      -0.041696    1.533092    0.213391
C       0.092943    0.027457    0.228856
O      -1.131586   -0.625214   -0.061276
C       1.304719   -0.746321   -0.230796
C       2.608256   -0.048362    0.167136
C       2.143452   -0.056817    1.661004
C       0.849331   -0.776603    1.251564
C       0.144057   -1.858773    2.034504
O      -0.961940   -1.365927    2.780031
H       0.890879    2.041595    0.464849
H      -0.344352    1.879405   -0.783220
H      -0.807306    1.849893    0.928533
H      -1.384535   -0.404374   -0.964055
H       1.196727   -1.522871   -0.980653
H       3.485195   -0.679700    0.008712
H       2.802609    0.926524   -0.291790
H       2.780045   -0.690346    2.283556
H       2.034375    0.911046    2.159921
H      -0.168992   -2.663390    1.355507
H       0.833372   -2.295706    2.765543
H      -1.597968   -1.059579    2.122937
