16

O      -0.083642    1.454802    0.101985
C       0.025992    0.042087    0.085349
C      -1.381290   -0.525652   -0.128528
C      -1.422695   -2.017429   -0.131242
C      -1.531863   -2.943250   -1.138750
N      -1.496913   -4.228163   -0.645855
C      -1.366919   -4.092641    0.652169
N      -1.313707   -2.779199    1.018830
H       0.800477    1.827033    0.167485
H       0.684803   -0.308737   -0.723184
H       0.442796   -0.339434    1.032392
H      -2.038598   -0.112074    0.646987
H      -1.760601   -0.156483   -1.085936
H      -1.638967   -2.749349   -2.195881
H      -1.308843   -4.894385    1.373425
H      -1.235216   -2.423707    1.957173
