18

O       0.072584    0.069685   -0.011645
C      -0.010418    1.270919    0.035196
C      -1.222525    2.189246    0.010435
C      -0.779839    3.272878    1.054219
C       0.328602    3.573449   -0.000010
C      -0.742928    3.220975   -1.075633
C       1.125473    2.277833    0.055848
C       2.402667    1.993746    0.750209
N       2.342832    2.036661   -0.719572
H      -2.205849    1.725073    0.002201
H      -1.515027    4.076508    1.131968
H      -0.473448    2.938246    2.048940
H       0.886261    4.507895   -0.015645
H      -0.398262    2.837807   -2.039334
H      -1.477332    4.016103   -1.221336
H       2.952184    2.810863    1.209822
H       2.503753    1.026972    1.236716
H       2.310796    1.081710   -1.077561
