17

C       0.015319    1.412302    0.056486
N      -0.032840   -0.034154    0.025261
C       0.502655   -0.610751   -0.978146
N       1.157708   -0.078705   -2.105625
C       1.548350   -1.127391   -2.889539
O       2.199258   -0.892476   -4.034441
N       1.226277   -2.278003   -2.406918
N       0.572801   -1.966362   -1.212956
C       0.049521   -2.999860   -0.362365
H       1.044672    1.812965    0.071820
H      -0.503792    1.883402   -0.797316
H      -0.477489    1.772601    0.963607
H       1.304472    0.896726   -2.290625
H       2.385283   -1.751164   -4.436731
H       0.847071   -3.667089   -0.017427
H      -0.406763   -2.502842    0.494917
H      -0.706579   -3.595337   -0.885836
