21

C       0.122180    1.598952    0.078279
C       0.006978    0.084733    0.000252
C       0.613226   -0.500874   -1.292562
C       0.862150   -2.016283   -1.155276
C      -0.382673   -2.749498   -0.628771
O      -0.382094   -2.522944    0.791981
C       0.813021   -1.842659    1.143173
C       1.803915   -2.226253    0.042711
O       0.635084   -0.441569    1.176589
H       1.172583    1.906283    0.058496
H      -0.393721    2.067097   -0.765993
H      -0.324736    1.966850    1.005715
H      -1.056231   -0.193845    0.036389
H      -0.065601   -0.287998   -2.126802
H       1.564593   -0.001775   -1.514550
H       1.227289   -2.445601   -2.091256
H      -1.321240   -2.371530   -1.050308
H      -0.325672   -3.828886   -0.822530
H       1.086142   -2.133073    2.159448
H       2.111987   -3.271722    0.144367
H       2.686629   -1.584621    0.037332
