17

O      -0.036591   -0.068212    0.002829
C      -0.069526    1.144535    0.007255
C       1.145956    1.946380    0.001170
C       2.136340    2.631035   -0.003532
C      -1.346291    1.923951    0.017851
C      -1.832839    2.960468   -1.050286
C      -2.950211    2.898149    0.031327
C      -2.786956    1.348392    0.025039
C      -1.819228    2.953176    1.099101
H       3.022758    3.217896   -0.006900
H      -1.262899    3.889703   -1.121139
H      -2.072707    2.552966   -2.035622
H      -3.884813    3.458345    0.039149
H      -3.101990    0.821571   -0.878362
H      -3.090529    0.815443    0.928768
H      -2.046601    2.538965    2.084601
H      -1.248386    3.881925    1.169037
