20

C      -0.043340    1.508344   -0.016625
C       0.017971   -0.019769    0.066632
C      -1.397586   -0.581230   -0.096958
O       0.878027   -0.536217   -0.998434
C       1.902979   -1.228622   -0.266744
C       1.120556   -2.028830    0.801507
C       0.801829   -0.574595    1.284208
C       2.275158   -0.247303    0.869995
H       0.937333    1.973513    0.091519
H      -0.448906    1.807643   -0.987872
H      -0.701904    1.908339    0.761899
H      -1.802393   -0.280587   -1.068107
H      -1.424403   -1.670608   -0.048684
H      -2.058952   -0.185690    0.681467
H       2.618043   -1.665302   -0.962616
H       0.310664   -2.674239    0.461008
H       1.768205   -2.563510    1.498372
H       0.403914   -0.354789    2.274802
H       3.003191   -0.657945    1.571631
H       2.544316    0.772264    0.593491
