13

N      -0.062535    1.319397   -0.008531
C      -0.010279    0.062821   -0.000841
N      -1.122002   -0.772261   -0.016486
C      -0.809339   -2.107101   -0.004709
O      -1.550121   -3.050963   -0.028588
C       0.740803   -2.117240    0.033673
O       1.107370   -0.721192    0.012389
C       1.272078   -2.793467    1.203150
C       1.702758   -3.358519    2.170339
H       0.872494    1.721040    0.007134
H      -2.061339   -0.407394   -0.032851
H       1.113216   -2.583792   -0.886047
H       2.083835   -3.861059    3.025506
