20

C       0.128184    1.412810    0.064667
N       0.221544   -0.037843    0.072820
C       0.537448   -0.642375   -0.986010
O       0.859022   -0.035072   -2.181736
C       0.755910   -0.970456   -3.278845
C       1.836616   -0.656335   -4.300570
C       0.808216   -2.348988   -2.634154
C       1.951280   -2.613824   -1.700806
C       0.626476   -2.116692   -1.151870
H       1.028729    1.844115    0.520002
H       0.014669    1.846318   -0.936134
H      -0.719487    1.717638    0.686935
H      -0.232843   -0.832519   -3.739277
H       2.833041   -0.802203   -3.875022
H       1.730817   -1.312750   -5.170001
H       1.752236    0.379612   -4.639796
H       0.325647   -3.171666   -3.147218
H       2.197212   -3.650054   -1.499520
H       2.798704   -1.936613   -1.687768
H       0.033787   -2.744188   -0.501489
