21

C      -0.178809    1.517143    0.015898
C       0.069764    0.010828    0.005098
C       1.059582   -0.521271   -1.089660
C       2.028738   -1.259370   -0.145179
O       1.103717   -1.933507    0.772770
C       0.826631   -0.570238    1.225375
C       2.313414   -0.221992    0.968055
C       3.282297   -0.681831    2.037395
O       4.585287   -0.663665    1.463223
H       0.753519    2.086783    0.088249
H      -0.685719    1.834261   -0.901284
H      -0.813925    1.807982    0.860306
H      -0.888399   -0.511834   -0.070997
H       0.583593   -1.203451   -1.796955
H       1.548405    0.280898   -1.651204
H       2.801672   -1.905906   -0.558667
H       0.356660   -0.512815    2.209235
H       2.554868    0.795600    0.647773
H       3.224395   -0.004256    2.905061
H       3.003174   -1.689204    2.373382
H       5.202957   -1.012441    2.112327
