17

O      -0.417433    0.160364    0.661317
C      -0.234365    1.278078    0.275802
O      -1.241300    2.078517   -0.161173
C      -0.734926    3.356465   -0.588876
C       0.640776    3.499001    0.076161
C       1.095933    2.037874    0.183203
C       2.022163    1.708637    1.325769
C       2.958515    0.585227    1.261336
O       3.414213    1.933431    1.100618
H      -0.665183    3.354745   -1.683027
H      -1.456369    4.117210   -0.285072
H       1.323200    4.130150   -0.494993
H       0.534068    3.932221    1.076604
H       1.577942    1.720546   -0.750719
H       1.669869    2.026426    2.308694
H       3.269479    0.091137    2.179577
H       2.993671   -0.031926    0.365515
