17

C      -0.185200    1.525414   -0.052980
C      -0.023387    0.044496    0.011437
C       0.075598   -1.056848   -0.978196
O       1.228479   -1.666809   -0.421334
C       0.903372   -0.958773    0.810837
C      -0.353652   -1.692793    1.331379
C      -1.057634   -1.104986    0.102695
C      -2.436190   -1.071278   -0.222812
C      -3.606768   -1.030970   -0.505677
H       0.734434    2.013872   -0.393186
H      -0.986984    1.785953   -0.751370
H      -0.450282    1.942934    0.924633
H      -0.113548   -1.122368   -2.041644
H       1.769624   -0.736366    1.429702
H      -0.278004   -2.779975    1.425151
H      -0.737026   -1.248475    2.252991
H      -4.638870   -1.003807   -0.752609
