15

C      -0.241467    1.325730   -0.023074
O       0.214824   -0.025755    0.045992
C       0.790807   -0.465234   -1.103483
C       0.009931   -0.995586   -2.322101
O       0.844769   -0.901579   -3.480466
C       1.913914   -1.431324   -2.639711
C       0.873472   -1.953624   -1.591194
C       2.187682   -0.279078   -1.631808
O       3.161576    0.312168   -1.265922
H       0.594318    2.012647   -0.197686
H      -0.986016    1.453042   -0.819437
H      -0.699083    1.547135    0.942256
H      -1.065284   -0.909821   -2.414406
H       2.691249   -1.979495   -3.163612
H       0.742827   -2.863831   -1.025737
