20

C       0.143036    0.993894   -0.342240
O      -0.382171   -0.121871    0.353472
C       0.490324   -0.622320    1.314368
C       0.219750   -2.010119    1.795833
C       1.457431   -1.732798    0.954495
C       1.531342   -2.263856   -0.459566
C       1.852116   -3.774422   -0.490518
C       1.945166   -4.300362   -1.850470
N       2.016707   -4.696196   -2.933921
H       1.059018    0.739703   -0.893380
H      -0.622280    1.318815   -1.050365
H       0.369166    1.823409    0.344224
H       0.829254    0.120739    2.038108
H       0.329345   -2.232214    2.851027
H      -0.600592   -2.524673    1.305390
H       2.404227   -1.723437    1.489967
H       0.580334   -2.084166   -0.968740
H       2.300735   -1.728714   -1.027622
H       2.799992   -3.972477    0.023551
H       1.080153   -4.332300    0.051026
