17

C      -0.006052    1.408747   -0.121540
O      -0.004053    0.002528   -0.179966
C      -1.270613   -0.560273    0.071443
C      -1.152495   -2.075306   -0.034412
C      -2.489503   -2.784697    0.231472
C      -2.334387   -4.288708    0.243685
O      -2.977123   -5.056489   -0.423652
H       1.011923    1.746446   -0.329899
H      -0.686420    1.848383   -0.868215
H      -0.306176    1.776838    0.872622
H      -1.629392   -0.274467    1.076618
H      -2.013409   -0.181417   -0.652444
H      -0.782383   -2.330939   -1.033406
H      -0.394398   -2.416763    0.680611
H      -2.864946   -2.489039    1.222960
H      -3.249401   -2.519419   -0.509484
H      -1.546777   -4.658320    0.942889
