19

C       0.002672    1.563077   -0.163701
C      -0.004973    0.055233   -0.041446
C       1.181441   -0.707615   -0.468558
O       0.932704   -0.471570    0.918906
C      -1.329996   -0.626175   -0.028161
C      -2.590917   -0.133559   -0.719269
C      -2.605201   -0.373205    0.757501
O      -2.797596   -1.753733    1.052328
C      -1.549651   -2.083449    0.381595
H       1.022078    1.937645   -0.047736
H      -0.378078    1.885369   -1.137652
H      -0.617394    2.020884    0.614536
H       1.074846   -1.742261   -0.793618
H       2.038529   -0.181927   -0.888774
H      -2.573555    0.908333   -1.021975
H      -3.150608   -0.794723   -1.376021
H      -2.873228    0.354909    1.514625
H      -1.689736   -2.824256   -0.414568
H      -0.804802   -2.430255    1.103754
