23

C      -0.064189    1.542709   -0.113908
C       0.045279    0.021808   -0.026890
C       1.003735   -0.569861   -1.085118
C       1.173814   -2.038865   -0.664185
C       1.923841   -1.309030    0.477393
C       3.067250   -1.920662    1.238589
O       2.317047   -0.286570   -0.508483
C       0.779037   -0.576000    1.239954
C       1.279032    0.426858    2.277891
H       0.925702    2.006764   -0.124182
H      -0.581444    1.832873   -1.035214
H      -0.629959    1.960814    0.724138
H      -0.954262   -0.415797   -0.129649
H       0.897049   -0.247739   -2.122027
H       0.287238   -2.633611   -0.426663
H       1.859208   -2.581906   -1.316746
H       3.788491   -2.373744    0.553062
H       3.589009   -1.166592    1.835432
H       2.698310   -2.696997    1.917596
H       0.134791   -1.309557    1.738293
H       2.026816    1.099778    1.849087
H       0.460733    1.036514    2.672612
H       1.736594   -0.089978    3.127935
