20

C      -0.114424    1.300954    0.357599
N      -0.043281   -0.096730    0.003284
C      -1.138018   -0.796658   -0.638943
C      -0.712164   -2.284709   -0.598791
C      -1.292496   -2.995080    0.626909
O      -1.192918   -2.878085   -1.798984
C       0.827443   -2.195281   -0.525687
C       1.120933   -0.819402    0.071176
O       2.178056   -0.418822    0.512146
H       0.841071    1.576287    0.806978
H      -0.291460    1.930443   -0.524484
H      -0.922240    1.483110    1.076424
H      -2.081718   -0.621694   -0.108994
H      -1.273339   -0.482429   -1.683282
H      -2.384745   -3.015306    0.572262
H      -0.927811   -4.027500    0.684993
H      -0.996140   -2.488572    1.551044
H      -1.032947   -3.826282   -1.747531
H       1.300320   -2.982082    0.066548
H       1.246878   -2.229584   -1.536894
