18

O      -0.015511    1.503554    0.005558
C       0.067517    0.096603   -0.020161
C       0.500768   -0.554709    1.325579
C      -0.793946   -1.330527    1.644876
C      -0.577533   -2.728612    2.289884
N      -0.350455   -3.250160    0.850504
C      -1.209433   -2.035955    0.428623
C      -1.317768   -0.552176   -0.087121
O      -1.813300   -0.250814    1.307383
H      -0.669593    1.710342    0.686870
H       0.712556   -0.161821   -0.863547
H       1.389933   -1.186003    1.243764
H       0.695694    0.206999    2.084710
H       0.266022   -2.861840    2.972803
H      -1.477228   -3.195302    2.693634
H       0.630809   -3.099953    0.621225
H      -2.237301   -2.393421    0.508840
H      -2.019831   -0.234455   -0.858367
