17

C      -0.020231    1.697749    0.063490
C       0.042112    0.181743    0.082052
O      -1.261397   -0.374886   -0.077953
C       1.014977   -0.607299   -0.847798
O       0.854480   -0.871168   -2.016535
C       1.800270   -1.224607    0.226560
C       2.143232   -0.257498    1.364873
C       0.717140   -0.554812    1.250652
O      -0.008996   -1.148239    2.228679
H       0.954173    2.151091    0.266005
H      -0.353905    2.038171   -0.921604
H      -0.735167    2.055976    0.810350
H      -1.332194   -0.669418   -0.995706
H       2.251553   -2.208627    0.187088
H       2.637590   -0.763006    2.189831
H       2.546268    0.729670    1.153722
H      -0.867172   -1.351070    1.823308
