17

O       0.492510    1.269568    0.064686
C       0.028503   -0.032473   -0.029531
C      -1.520031   -0.337609    0.078154
C      -1.338577   -1.411512   -1.016176
C       0.023980   -0.763987   -1.425982
C      -0.076101    0.189106   -2.513823
C      -0.165169    1.042867   -3.358653
C      -1.994636   -0.760944    1.435641
O      -2.122862   -1.910473    1.781981
H       0.246376    1.728312   -0.750977
H       0.579766   -0.630983    0.700883
H      -2.075368    0.540293   -0.266586
H      -1.200082   -2.397678   -0.569957
H      -2.100998   -1.464510   -1.792402
H       0.857510   -1.450889   -1.594768
H      -0.239277    1.758435   -4.140418
H      -2.182528    0.073231    2.148487
