20

C       0.095112    1.530140    0.108866
C       0.097146   -0.000053    0.076554
C       0.828949   -0.555960   -1.144585
C       0.841831   -2.069459   -1.194884
O       0.327638   -2.771339   -0.358475
C       1.558379   -2.699385   -2.391365
N       2.096560   -1.953201   -3.267076
O       1.503986   -4.042965   -2.326739
C       2.127312   -4.774164   -3.372169
H       1.115051    1.929913    0.136642
H      -0.396769    1.947210   -0.777121
H      -0.433374    1.905842    0.990355
H       0.562435   -0.396131    0.985857
H      -0.930701   -0.379096    0.083298
H       0.388948   -0.190630   -2.081449
H       1.869007   -0.207735   -1.186755
H       2.546280   -2.472875   -4.020296
H       1.672695   -4.546594   -4.344209
H       3.203218   -4.565342   -3.418553
H       1.972472   -5.827283   -3.137465
