18

C      -0.011265    1.352494    0.083473
O      -0.129141   -0.060505   -0.101376
C       0.537730   -0.551219   -1.148494
N       1.254745    0.110033   -1.972851
C       1.762177   -0.879332   -2.941919
C       3.236532   -0.663920   -3.264401
C       1.451984   -2.268714   -2.303404
N       0.388669   -1.916848   -1.355399
H       1.034733    1.635966    0.228438
H      -0.400180    1.887368   -0.786925
H      -0.599229    1.585505    0.971923
H       1.182541   -0.775610   -3.871290
H       3.843568   -0.739606   -2.356168
H       3.594218   -1.409623   -3.983194
H       3.392042    0.329748   -3.693132
H       1.113096   -3.009924   -3.031923
H       2.338782   -2.668948   -1.789065
H       0.271411   -2.483675   -0.527295
