17

C      -0.014766   -1.219816    0.012424
C      -0.003196   -0.015967    0.002037
C       0.003813    1.418919    0.003915
C      -0.461309    2.205065   -1.270767
C       0.872244    3.012748   -1.273852
C       1.344828    2.260943    0.001037
C       0.919505    2.861557    1.359702
O      -0.351741    3.505437    1.184708
C      -0.334406    2.092816    1.373844
H      -0.024658   -2.281503    0.014009
H      -0.586754    1.550898   -2.134790
H      -1.366637    2.795419   -1.125136
H       1.500741    2.810481   -2.143507
H       0.762872    4.091656   -1.155429
H       2.308106    1.752901   -0.003329
H       1.543413    3.228053    2.166853
H      -0.933141    1.682065    2.179056
