27

C       0.063528    1.575661   -0.111585
C       0.047349    0.055844    0.077848
C      -1.368620   -0.531273    0.005129
C      -1.435403   -2.069444    0.059866
C      -0.788862   -2.632941    1.334484
C      -2.881485   -2.591332   -0.075369
C      -3.628884   -2.062380   -1.303778
O      -2.791494   -4.015034   -0.132661
C      -3.946050   -4.701319    0.284294
H       1.080973    1.975133   -0.054079
H      -0.351455    1.859111   -1.085423
H      -0.533979    2.076594    0.658559
H       0.673433   -0.415987   -0.691495
H       0.509709   -0.190748    1.040055
H      -1.973274   -0.112892    0.823946
H      -1.830908   -0.178826   -0.923962
H      -0.886961   -2.466696   -0.807025
H      -1.241152   -2.188869    2.230460
H      -0.928075   -3.714145    1.381940
H       0.283897   -2.426325    1.367930
H      -3.439973   -2.307658    0.834701
H      -3.850210   -0.995942   -1.214092
H      -3.037446   -2.222128   -2.211310
H      -4.583544   -2.581699   -1.426753
H      -4.815706   -4.509280   -0.362101
H      -3.718664   -5.769914    0.242036
H      -4.225096   -4.440286    1.317544
