16

O      -0.073615    1.444611   -0.043784
C      -0.001061    0.029676    0.024910
C       0.645997   -0.527394   -1.180799
N       1.186373   -0.943483   -2.113740
C       0.690933   -0.497591    1.273161
C       0.243035   -0.121597    2.674917
C      -1.278728   -0.082309    2.742780
O      -1.373230   -1.406127    2.136035
C       0.048019   -1.528953    2.158058
H       0.824738    1.794322   -0.030300
H      -1.039719   -0.314728    0.039101
H       1.770041   -0.605593    1.196697
H       0.925386    0.277366    3.412539
H      -1.665722   -0.111985    3.765987
H      -1.799099    0.686667    2.163541
H       0.473375   -2.492001    2.413937
