18

N      -0.567822    1.079676   -0.137660
C       0.039276   -0.258357    0.020744
C       0.768680   -0.704491   -1.170088
C       1.354210   -1.058690   -2.158768
C       0.962080   -0.256123    1.273937
N       1.882598    0.891682    1.208840
C       0.183164   -0.301417    2.604488
N      -0.812160    0.623766    2.709348
O       0.497912   -1.061516    3.501218
H       0.184221    1.725101   -0.369581
H      -1.197648    1.072464   -0.934185
H      -0.777450   -0.966040    0.211475
H       1.874385   -1.374035   -3.029311
H       1.549809   -1.174183    1.253801
H       1.492369    1.672912    1.727157
H       2.755833    0.656284    1.666821
H      -1.124819    1.110811    1.875368
H      -1.373605    0.615060    3.545813
