15

N      -0.201940    1.295263    0.347720
C      -0.140635   -0.064838    0.098360
C      -1.083962   -0.985284   -0.255769
O      -2.381635   -0.672715   -0.600590
C      -3.358901   -1.081668    0.253529
N      -4.564450   -0.865695   -0.038081
C      -0.429751   -2.262451   -0.290972
C       0.860433   -2.021553    0.042730
O       1.047408   -0.680016    0.285946
H       0.608194    1.797726    0.004826
H      -1.053826    1.697943   -0.022298
H      -2.959402   -1.576181    1.147198
H      -5.169105   -1.222260    0.698979
H      -0.870976   -3.212253   -0.548292
H       1.736521   -2.636367    0.150758
