17

C      -0.024604    1.563056    0.015849
C      -0.099936    0.042750   -0.033506
O      -1.410061   -0.279066   -0.354548
C       1.142714   -0.605815   -0.762095
O       1.916517   -0.284162    0.443701
C       0.682941   -0.645234    1.153692
C       0.651659   -2.164539    0.853425
O      -0.307991   -2.601598   -0.137849
C       0.992799   -2.135292   -0.568046
H       0.976683    1.911956    0.263403
H      -0.323627    1.968361   -0.955396
H      -0.735582    1.933056    0.760573
H      -1.454563   -1.246159   -0.385130
H       1.579942   -0.230408   -1.686816
H       0.649551   -0.310178    2.189951
H       0.967914   -2.915610    1.567547
H       1.605604   -2.860935   -1.089589
