21

C      -0.407423    1.144893    0.038319
O       0.265215   -0.098641   -0.061939
C       0.837710   -0.552414    1.124889
C      -0.072451   -1.152119    2.186345
C       0.813782   -2.041100    1.327264
O       0.226226   -2.872478    0.378733
C       2.155697   -2.469255    1.888543
C       2.777645   -1.159732    2.433979
C       2.193928   -0.020306    1.559616
H       0.285210    1.958446    0.292611
H      -0.848928    1.349451   -0.939747
H      -1.202467    1.111614    0.795319
H       0.135017   -0.994876    3.240465
H      -1.125547   -1.194967    1.929772
H      -0.074979   -2.295814   -0.336640
H       2.082992   -3.248379    2.653815
H       2.749574   -2.873137    1.060665
H       2.490453   -1.012437    3.479900
H       3.869788   -1.179138    2.408774
H       2.800239    0.133134    0.658773
H       2.152391    0.932624    2.098234
