13

C      -0.023952    1.473729    0.041931
C      -0.008410   -0.023479    0.001222
N      -0.042079   -0.572748   -1.168543
O      -0.028620   -1.958942   -1.234489
C       0.017842   -2.697730   -0.117240
C       0.054253   -2.175060    1.124407
F       0.099386   -2.969108    2.184682
C       0.044246   -0.740707    1.306684
O       0.073908   -0.152316    2.373980
H       0.867125    1.838850    0.561592
H      -0.063463    1.883906   -0.967232
H      -0.885014    1.819010    0.622202
H       0.022705   -3.760754   -0.327723
