13

O      -0.078123   -0.000215   -0.176117
C      -0.057599    1.189879   -0.053875
N      -1.074047    2.116425   -0.178708
C      -0.577691    3.407216    0.017805
C      -1.432454    4.632836   -0.026322
C      -2.184330    4.759199   -1.280265
N      -2.790449    4.830265   -2.260724
C       0.725092    3.262570    0.291682
O       1.070612    1.932765    0.266448
H      -1.987202    1.865367   -0.517879
H      -2.154661    4.637069    0.801240
H      -0.799173    5.515847    0.103153
H       1.501613    3.969456    0.526529
