21

C      -0.037372    1.557159   -0.039469
C       0.133064    0.040880    0.018080
C       0.814546   -0.577513   -1.218379
C       1.242653   -1.987639   -0.766136
O       2.533529   -2.398039   -1.207339
C       3.420201   -2.078577   -0.161647
O       2.725790   -2.290668    1.044398
C       1.375555   -1.913561    0.791139
C       1.018518   -0.463759    1.174362
H       0.933946    2.054211   -0.145919
H      -0.660196    1.856087   -0.889131
H      -0.510094    1.939767    0.871210
H      -0.861781   -0.416633    0.124637
H       0.174982   -0.591628   -2.104927
H       1.712808   -0.000922   -1.473523
H       0.534182   -2.752370   -1.094730
H       4.284295   -2.747506   -0.203537
H       3.755851   -1.027199   -0.240432
H       0.739170   -2.638343    1.305361
H       1.942269    0.127121    1.218756
H       0.537942   -0.389244    2.153497
