15

C       0.004972    1.360666    0.046756
O      -0.031228   -0.064253    0.127928
C      -1.257604   -0.595483    0.024904
N      -2.393692    0.024123   -0.137307
C      -3.345093   -0.990678   -0.163004
C      -2.757474   -2.214921   -0.024289
N      -3.206824   -3.549712   -0.047127
N      -1.395047   -1.947547    0.100700
H       1.055782    1.636638    0.141818
H      -0.396288    1.704944   -0.911036
H      -0.583418    1.810196    0.852186
H      -4.394850   -0.769412   -0.282369
H      -3.383632   -3.916510    0.884259
H      -4.067185   -3.628555   -0.575389
H      -0.657681   -2.630238    0.143156
