15

N       0.044362    1.400932    0.169292
C       0.020975    0.003877    0.059365
C      -1.070897   -0.830466   -0.008518
N      -0.653590   -2.186120   -0.116994
C       0.706999   -2.153432   -0.002372
C       1.171413   -0.856245    0.058781
N       2.552960   -0.830309    0.037905
C       2.896953   -2.093506   -0.027928
N       1.810645   -2.963511   -0.072979
H       0.899645    1.793156   -0.202530
H      -0.752139    1.850665   -0.262075
H      -2.123126   -0.597605   -0.025309
H      -1.237838   -2.941959    0.200271
H       3.907355   -2.474508   -0.037048
H       1.855366   -3.967153   -0.090276
