14

N       0.013402    1.146749   -0.082783
C      -0.004390   -0.204014    0.153219
O       0.958244   -0.930601    0.053721
N      -1.266467   -0.664850    0.593664
C      -2.498210   -0.567053   -0.152530
C      -1.835185   -1.900924    0.084728
C      -1.203729   -2.557830   -1.116070
O      -0.951091   -1.972944   -2.137794
H       0.929303    1.560022   -0.151704
H      -0.717600    1.723420    0.299756
H      -3.384179   -0.300544    0.417407
H      -2.444231   -0.202214   -1.175145
H      -2.213561   -2.577953    0.846711
H      -1.006102   -3.643759   -1.002678
