23

C       0.002479    1.619313    0.047437
C      -0.065881    0.088979    0.073810
C       0.753946   -0.545238    1.221412
C       0.081286   -0.201223    2.540860
O       0.398856    0.703624    3.267202
C       0.867565   -2.073834    1.118479
C       1.718994   -2.551931   -0.058535
O       1.422355   -2.481571    2.366988
C       1.246840   -3.842370    2.690216
H       1.029360    1.962382   -0.116222
H      -0.617833    2.019461   -0.760138
H      -0.341313    2.056017    0.989120
H      -1.111910   -0.237013    0.159766
H       0.294598   -0.304964   -0.882232
H       1.758980   -0.108530    1.241484
H      -0.806122   -0.838196    2.771793
H      -0.148963   -2.497760    1.026639
H       1.796099   -3.642676   -0.070286
H       1.283950   -2.249640   -1.014884
H       2.729491   -2.137914    0.013377
H       1.609829   -3.976668    3.711997
H       0.186144   -4.135446    2.648954
H       1.815538   -4.511482    2.029213
