20

O       0.159826    1.354784    0.209531
C       0.057136   -0.033197   -0.084366
C      -1.362710   -0.510724   -0.121148
C      -2.099126   -0.982791    1.106426
C      -1.903851   -1.947484   -0.038833
C      -2.884030   -1.625884   -1.145218
C      -3.300117   -2.520681   -2.241646
N      -4.282449   -2.037790   -1.244563
C      -2.378855   -0.171661   -1.229462
H      -0.312551    1.506495    1.035047
H       0.528568   -0.155747   -1.066078
H       0.633227   -0.640851    0.633336
H      -1.479753   -1.180406    1.977012
H      -3.091021   -0.602896    1.338789
H      -1.356299   -2.876211    0.079909
H      -3.438780   -2.128592   -3.246165
H      -2.984324   -3.561043   -2.203235
H      -4.479329   -2.771603   -0.567122
H      -3.109487    0.608113   -0.997181
H      -1.902969    0.056521   -2.187079
