20

C       3.005599   -1.456932    1.306036
N       1.786374   -1.236572    0.533795
C       0.547911   -1.734212    1.119763
C       0.809870   -0.262297    1.036674
C       1.063186    0.637182    2.210963
C      -0.072605    1.055165    3.136381
O      -1.264166    0.311243    3.125663
C       1.089490    0.277082    3.691330
O       0.836234   -1.009790    4.155056
H       2.851440   -1.485466    2.393151
H       3.438558   -2.413378    0.996059
H       3.729294   -0.669292    1.071825
H      -0.149790   -2.201199    0.427895
H       0.607287   -2.192049    2.101657
H       0.329287    0.273252    0.215648
H       1.731046    1.461980    1.965736
H      -0.213074    2.106073    3.377887
H      -1.531627    0.159907    2.213303
H       1.827604    0.792362    4.299074
H      -0.123325   -1.127316    4.079369
