19

C      -0.042277    1.521600    0.034965
C       0.030346   -0.002915    0.041441
C       0.954986   -0.607719   -1.067187
C       1.968439   -1.322549   -0.134451
C       1.051020   -2.049501    0.887918
C       0.805614   -0.574462    1.253263
O       2.195968   -0.290406    0.893426
C       3.147384   -1.915728   -0.707731
C       4.113040   -2.428045   -1.207403
H       0.959916    1.945272    0.148807
H      -0.466072    1.894095   -0.903261
H      -0.667712    1.893465    0.854182
H      -0.977973   -0.428214   -0.005310
H       0.447524   -1.302214   -1.740779
H       1.454800    0.159077   -1.662624
H       0.225463   -2.657665    0.509979
H       1.633968   -2.575800    1.643018
H       0.534484   -0.242057    2.255164
H       4.971044   -2.877225   -1.643328
