19

C       0.028112    1.536653   -0.058938
C       0.030781    0.012061    0.062607
O       0.601087   -0.409812    1.300682
C      -1.367255   -0.579401    0.015014
C      -2.168208   -0.509818   -1.315700
C      -2.679401   -1.950190   -1.038512
C      -1.518991   -2.124815   -0.021559
H       1.049519    1.934338   -0.029927
H      -0.423906    1.857324   -1.003151
H      -0.534849    1.982647    0.767350
H       0.610024   -0.410509   -0.777998
H       1.486029   -0.036703    1.362784
H      -1.953168   -0.159949    0.841172
H      -2.909495    0.285457   -1.426627
H      -1.498305   -0.480759   -2.182266
H      -3.655468   -1.943957   -0.544741
H      -2.725571   -2.641820   -1.883050
H      -0.643473   -2.596137   -0.479835
H      -1.731605   -2.635272    0.919659
