17

N      -0.152498    1.260116    0.338457
C      -0.048708    0.054708   -0.044457
O       1.120506   -0.438231   -0.518128
C       1.287021   -1.815008   -0.888588
C       0.018979   -2.520805   -1.251743
C      -1.160069   -2.062473   -0.846621
C      -1.250236   -0.842390   -0.021148
C      -2.056309   -0.831596    1.251971
N      -2.562830   -0.176171    0.054444
H       0.741417    1.745032    0.264436
H       1.984727   -1.801680   -1.732943
H       1.798333   -2.329423   -0.060718
H       0.114662   -3.427666   -1.840033
H      -2.094898   -2.554498   -1.093269
H      -2.579591   -1.737255    1.547837
H      -1.669326   -0.218437    2.060371
H      -2.373874    0.824360    0.127522
