10

F       0.006016    0.013397    0.003319
C      -0.022684    1.339632    0.010739
C      -1.209211    2.048065    0.029987
N      -1.230756    3.386545    0.037388
C      -0.047504    3.990411    0.025184
N       1.152512    3.397443    0.006339
C       1.155070    2.088748   -0.000661
F       2.317130    1.464363   -0.019156
H      -2.157340    1.517158    0.039531
H      -0.047069    5.076107    0.030899
