20

C       0.142280    1.544015    0.155574
C      -0.035440    0.062678   -0.014448
C      -0.996761   -0.741320    0.756812
N       0.444529   -0.950214    1.033110
C       1.051177   -1.777962   -0.083093
C       0.192436   -2.812745   -0.817752
O      -0.319349   -1.795605   -1.720077
C       0.580199   -0.791916   -1.159898
C       1.426084   -0.121945   -2.208455
H       1.176089    1.857498   -0.021385
H      -0.501697    2.095995   -0.539110
H      -0.126479    1.840793    1.173444
H      -1.494823   -0.251294    1.588411
H      -1.589480   -1.503003    0.263646
H       2.093634   -2.007623    0.132752
H       0.777911   -3.566077   -1.360132
H      -0.598944   -3.315790   -0.250421
H       0.796902    0.469607   -2.882986
H       2.163981    0.546845   -1.755935
H       1.953682   -0.869580   -2.807018
