15

N      -0.025530   -1.133325    0.019294
C       0.009875    0.022285    0.021829
C       0.040277    1.463982   -0.027458
C      -0.955221    2.166199   -0.965290
C      -0.264326    3.449651   -1.403745
O       0.067175    4.352522   -0.337873
C       1.097577    3.492846   -0.847198
C       1.320501    2.263098    0.014741
N       0.485843    2.139082    1.202780
H      -1.143583    1.535030   -1.839514
H      -1.918494    2.354456   -0.480381
H      -0.549531    3.928783   -2.336577
H       1.937283    3.987777   -1.323527
H       2.302216    1.805387    0.055404
H      -0.040139    3.004917    1.324129
