17

C       0.040918    1.434106   -0.309412
C       0.027067   -0.074161   -0.048380
C      -1.385034   -0.616703    0.147517
N      -2.252588   -0.616011   -1.068084
C      -2.670034   -2.027512   -0.895071
C      -2.558046   -2.875148   -2.075069
N      -2.456031   -3.561278   -2.999412
C      -1.560295   -2.139431    0.208542
O      -1.062589   -3.038304    0.802830
H       1.062261    1.793464   -0.462801
H      -0.537590    1.677151   -1.206094
H      -0.386536    1.989454    0.533112
H       0.489562   -0.603818   -0.888284
H       0.610087   -0.317297    0.847667
H      -1.854130   -0.147276    1.027214
H      -3.021121    0.043047   -1.052919
H      -3.659680   -2.174810   -0.438414
