19

C       0.012639    1.484607   -0.039999
C      -0.030157   -0.018757    0.061978
C      -1.309911   -0.747708   -0.344701
C      -1.159265   -2.172015    0.228198
C      -0.224139   -2.023992    1.455648
O       0.607218   -3.154288    1.681913
C       0.623386   -0.805991    1.147220
N       1.239461   -0.720057   -0.185483
H       0.977880    1.864538    0.302900
H      -0.124721    1.808065   -1.078471
H      -0.780582    1.943533    0.560941
H      -2.168441   -0.235430    0.106551
H      -1.472641   -0.740660   -1.428997
H      -2.119487   -2.626846    0.486718
H      -0.675719   -2.842000   -0.490353
H      -0.819324   -1.805939    2.357794
H       0.042459   -3.898779    1.912242
H       1.190696   -0.350832    1.953922
H       1.114493   -1.587877   -0.700806
