15

C      -0.173753    1.507812   -0.011926
C      -0.101016    0.055577    0.012363
C      -0.033733   -1.146768    0.046203
C       0.027437   -2.613945    0.027210
O      -1.273755   -3.195146   -0.051481
C       0.673937   -2.998606   -1.339319
O       1.813897   -3.318313   -1.495061
C       0.798006   -3.131773    1.159681
C       1.403228   -3.574511    2.097140
H       0.605770    1.926898   -0.657073
H      -1.142205    1.848453   -0.393250
H      -0.039503    1.926970    0.990851
H      -1.780905   -2.871870    0.701883
H      -0.067151   -2.918332   -2.160813
H       1.948844   -3.965447    2.920514
