15

O       0.017256   -0.080314   -0.046098
C      -0.011259    1.123303    0.056224
C      -1.303158    1.918758    0.121346
C      -1.321691    2.868164    1.336337
C      -0.025233    3.621460    1.478015
C       1.118244    3.225460    0.921217
C       1.263175    1.960544    0.113801
H      -1.359072    2.525308   -0.793254
H      -2.147090    1.225680    0.124063
H      -2.158752    3.569445    1.241144
H      -1.520615    2.295888    2.253838
H      -0.044940    4.529442    2.075315
H       2.021281    3.815218    1.058253
H       2.068440    1.324802    0.498838
H       1.549786    2.201133   -0.922301
