18

C      -0.043977    1.556287   -0.055555
C       0.045032    0.046375   -0.019080
C       1.387866   -0.659694   -0.117040
O       2.572190    0.085216   -0.116546
C       0.636558   -0.662298    1.171000
C       1.115656   -0.083742    2.497404
O       0.621527   -1.247602    3.202206
C       0.116500   -1.839585    1.986192
H       0.866309    2.011541    0.343159
H      -0.177613    1.918047   -1.081239
H      -0.891659    1.919355    0.534980
H      -0.779291   -0.474225   -0.503749
H       1.431740   -1.592032   -0.682566
H       2.689896    0.466163   -0.993308
H       2.200691    0.034145    2.595005
H       0.618812    0.836595    2.831600
H      -0.975761   -1.957570    2.009666
H       0.578231   -2.814081    1.776883
