17

N       0.115957    1.413805   -0.465017
C       0.119762    0.258629    0.039508
N      -1.028808   -0.486001    0.312187
C      -2.351234   -0.180224    0.040516
O      -2.775027    0.807225   -0.493841
O       1.179221   -0.521779    0.437174
C       2.456528    0.058518    0.357821
C       3.585117   -0.900417    0.166820
C       3.188332    0.032534   -0.957410
H       1.061842    1.760164   -0.601819
H      -0.850588   -1.371405    0.761165
H      -2.999320   -1.007440    0.397326
H       2.586866    0.909008    1.021921
H       4.507648   -0.714732    0.704098
H       3.319886   -1.945869    0.061397
H       2.663359   -0.401148   -1.800489
H       3.836133    0.866590   -1.202836
