21

C       0.152023    1.524154    0.168805
C      -0.026214    0.018846   -0.046818
C       0.628675   -0.506826   -1.332843
C       0.003332    0.068736   -2.606907
N       2.135038   -0.400810   -1.289279
C       2.303155   -1.867770   -1.514476
C       0.806862   -2.018038   -1.384107
N      -0.038856   -2.953118   -1.309588
O       0.590789   -4.211379   -1.390924
H       1.213462    1.789007    0.133091
H      -0.375000    2.116998   -0.585574
H      -0.236306    1.821869    1.147413
H       0.418964   -0.519172    0.796737
H      -1.089858   -0.248492   -0.064149
H       0.153932    1.152143   -2.658586
H       0.448160   -0.380425   -3.500517
H      -1.073160   -0.126560   -2.633191
H       2.508969    0.159420   -2.047726
H       2.688565   -2.160141   -2.500165
H       2.905138   -2.370680   -0.749862
H      -0.154326   -4.816527   -1.311047
