15

C      -0.030183    1.559480   -0.032133
C       0.006812    0.057323   -0.030793
C      -0.114675   -0.713394   -1.175531
F      -0.273958   -0.103575   -2.352615
C      -0.076721   -2.105577   -1.144162
C       0.089808   -2.698427    0.095400
N       0.212607   -2.006263    1.235103
C       0.170148   -0.683502    1.153137
O       0.294392    0.010876    2.305064
H       0.895817    1.973523    0.379970
H      -0.164152    1.943176   -1.044104
H      -0.847554    1.930786    0.594578
H      -0.174334   -2.680960   -2.055146
H       0.127527   -3.780153    0.186870
H       0.396078   -0.652647    3.001775
