19

C      -0.045787    1.656545    0.284694
N       0.043122    0.223447    0.120126
C      -1.203356   -0.570651    0.205132
C      -0.483557   -1.598522    1.108848
C       0.695936   -0.576888    1.176765
C       1.629959   -1.671060    0.593841
N       0.437939   -2.518085    0.443498
C       0.301925   -3.764291   -0.059932
O       1.204696   -4.417429   -0.541547
H       0.958266    2.093247    0.288159
H      -0.593011    2.089449   -0.559138
H      -0.559077    1.965797    1.215533
H      -2.006355   -0.058406    0.759276
H      -1.596032   -0.921509   -0.755014
H      -1.024566   -2.008526    1.962657
H       0.997601   -0.046429    2.082158
H       2.121679   -1.407193   -0.345446
H       2.358720   -2.092439    1.295719
H      -0.743910   -4.128757    0.023369
