19

C       0.133008    1.535697    0.355712
C       1.550919    1.622837   -0.298587
C       1.467541    0.131498   -0.599323
O       2.031304   -0.375296   -1.772267
C       2.108790   -1.772280   -1.575103
O       2.374616   -1.992910   -0.203983
C       1.785714   -0.916309    0.507764
C       0.267885   -1.044457    0.843194
C      -0.054116    0.078896   -0.174519
H       0.135215    1.608993    1.446635
H      -0.586880    2.257938   -0.032802
H       1.536736    2.207793   -1.221884
H       2.386905    1.962018    0.319758
H       1.157552   -2.249762   -1.869056
H       2.931953   -2.176074   -2.170546
H       2.455895   -0.642799    1.326677
H      -0.122119   -2.024743    0.556739
H      -0.006600   -0.849355    1.883953
H      -0.873518   -0.074541   -0.877029
