14

C      -0.062603   -1.279209   -0.084369
C      -0.059453   -0.076666   -0.059246
C      -0.047272    1.372032   -0.020943
C      -0.020299    2.070319    1.367675
C       1.518032    1.859139    1.525938
O       1.797318    3.258840    1.825809
C       0.758425    3.299260    0.805753
C       1.328685    2.095281   -0.005235
H      -0.068256   -2.340742   -0.109461
H      -0.772568    1.791739   -0.725969
H      -0.772449    2.063751    2.155327
H       2.070201    1.084805    2.054405
H       0.391116    4.265554    0.462414
H       2.102857    2.116957   -0.770974
