20

C      -0.067459    1.525089    0.017961
C      -0.017470    0.029366   -0.067680
C       0.766093   -0.781082   -1.115900
C      -0.193335   -1.986186   -0.828825
O      -0.819029   -2.605483   -1.916604
C       0.425447   -2.901180    0.234079
C       0.628901   -1.915086    1.408756
N      -0.265741   -0.756549    1.158025
C      -1.090203   -1.013205   -0.015525
H       0.901253    1.931623    0.332583
H      -0.314291    1.964485   -0.954653
H      -0.817580    1.840790    0.747517
H       0.580342   -0.387403   -2.118890
H       1.843579   -0.925735   -0.970424
H      -0.164144   -3.135259   -2.383196
H      -0.279063   -3.699750    0.490579
H       1.361766   -3.361994   -0.100419
H       0.353510   -2.358553    2.369408
H       1.664061   -1.569503    1.493131
H      -2.172778   -0.966333    0.015485
