15

C      -0.095315    1.544831    0.112801
C       0.080300    0.064461    0.080736
O      -1.154061   -0.734836    0.121053
C      -0.364427   -1.772801    0.698645
C       0.755092   -0.903126    1.120014
C       0.945995   -1.892936   -0.093102
O       1.750056   -2.996883   -0.108235
C       0.931274   -0.686446   -0.987714
O       1.533741   -0.337761   -1.962097
H       0.878501    2.039658    0.057140
H      -0.685905    1.860523   -0.752636
H      -0.610016    1.863672    1.022731
H      -0.841756   -2.623585    1.169900
H       1.378609   -0.780443    1.992863
H       1.278522   -3.725091   -0.528521
