13

C       0.018474   -1.211910   -0.003882
C       0.002135   -0.008229    0.002653
C      -0.017174    1.415534    0.010449
C      -1.224737    2.126805    0.030556
C      -1.184188    3.515708    0.037355
N      -0.055359    4.231062    0.025856
C       1.092453    3.546753    0.006695
C       1.170653    2.159468   -0.001698
H       0.032924   -2.273917   -0.009618
H      -2.171150    1.599637    0.040576
H      -2.111015    4.084256    0.052903
H       2.003518    4.140361   -0.002495
H       2.131012    1.658301   -0.017349
