17

C       0.175460    1.405287   -0.003744
O       1.133185    0.399424   -0.334064
C      -0.203766   -0.014008   -0.041436
C      -0.377279   -0.806578    1.204365
C       0.367411   -0.526853    2.537506
C      -0.010124   -1.963445    2.896022
C      -1.378730   -2.180406    2.224664
O      -1.772116   -0.948207    1.618773
C      -0.136965   -2.356800    1.427679
H       0.325591    1.896108    0.955703
H      -0.122705    2.056393   -0.823575
H      -0.768276   -0.377560   -0.899919
H       1.441675   -0.419109    2.375244
H      -0.025511    0.293859    3.146377
H       0.340425   -2.570881    3.720143
H      -2.141285   -2.869172    2.562025
H       0.280076   -3.154199    0.829278
