21

C       0.058256    1.715731    0.012018
C       0.035867    0.179877    0.010176
C       0.712071   -0.387164   -1.254361
C      -0.035687   -0.027035   -2.518980
O       0.455537    0.465030   -3.501535
C       0.687186   -0.391814    1.276143
C      -0.124964   -0.181700    2.552191
C       0.592952   -0.479720    3.856047
O      -1.277352    0.186233    2.526801
H       1.088505    2.091503    0.025591
H      -0.425349    2.122924   -0.881607
H      -0.467106    2.109631    0.884740
H      -1.012658   -0.143259    0.016711
H       1.748313   -0.046658   -1.351969
H       0.722526   -1.486094   -1.197471
H      -1.125757   -0.265946   -2.482767
H       0.829982   -1.478773    1.180584
H       1.696763    0.016372    1.421432
H       1.101872   -1.448572    3.813833
H       1.366995    0.277474    4.029247
H      -0.116307   -0.463626    4.684312
