22

C       0.144550    1.500616    0.053976
C       0.526049    0.030836    0.016250
O       0.094493   -0.574897    1.224308
C       0.378396   -1.935870    1.292635
C       1.757378   -2.385553    1.719129
C       0.568172   -2.531965    2.654008
C       0.469426   -1.682892    3.905287
C       1.287161   -2.249625    5.070907
H       0.622509    1.999979    0.901755
H       0.460721    2.000270   -0.866616
H      -0.938342    1.614030    0.157219
H       0.053154   -0.470099   -0.844678
H       1.614507   -0.090079   -0.098662
H      -0.136747   -2.532772    0.537368
H       2.194645   -3.267338    1.263286
H       2.466270   -1.598667    1.958128
H       0.184419   -3.543519    2.769020
H       0.796979   -0.665131    3.672452
H      -0.584452   -1.600176    4.200817
H       1.195260   -1.620847    5.962216
H       0.951627   -3.257798    5.339105
H       2.349144   -2.314513    4.811410
