17

C       0.123343   -1.246580    0.070789
C       0.094163   -0.042719    0.066668
C       0.006881    1.396412    0.027690
C       0.467903    2.177169    1.246476
C       1.299502    2.193733   -0.003548
N      -1.089584    2.011419   -0.693555
C      -1.571687    1.376954   -1.917690
C      -2.397014    1.360400   -0.677109
H       0.167978   -2.307492    0.085524
H      -0.115383    3.060432    1.477300
H       0.822831    1.611416    2.099297
H       2.230077    1.639450   -0.016017
H       1.276143    3.088147   -0.614395
H      -1.805023    2.057747   -2.731148
H      -1.120496    0.433289   -2.214114
H      -2.484404    0.405931   -0.163985
H      -3.245755    2.028852   -0.565529
