21

C       0.007943    1.311817   -0.388515
C       1.445623    1.528706    0.113412
C       1.284022    0.145215    0.800219
C       2.135493   -0.975547    0.205006
C       1.886332   -2.297786    0.936345
C       2.281533   -2.173523    2.413919
C       1.776465   -0.890780    3.019105
C       1.324800    0.137448    2.300387
O      -0.106349    0.065599    0.324411
H      -0.734388    2.045394   -0.051534
H      -0.100508    1.178594   -1.472646
H       2.220876    1.574311   -0.653984
H       1.574779    2.365090    0.803035
H       1.907848   -1.064753   -0.862280
H       3.194006   -0.692735    0.291599
H       0.819301   -2.539187    0.863012
H       2.436347   -3.115810    0.460108
H       1.899484   -3.025816    2.989231
H       3.376777   -2.217698    2.519772
H       1.783617   -0.821395    4.105003
H       0.936696    1.024303    2.796182
