18

C      -0.200469    1.437486    0.051798
C       0.044755   -0.063309    0.016915
C       0.876520   -0.642205   -1.169135
C       1.901710   -1.181643   -0.133457
N       1.096068   -0.553368    0.925543
C       1.094968   -0.566943    2.270432
O       0.220141   -0.071497    2.969035
C       2.285961   -1.243783    2.948919
O       3.200392   -1.782128    2.380249
H       0.729012    1.989479   -0.121747
H      -0.918247    1.715844   -0.726984
H      -0.604730    1.731534    1.022993
H      -0.897901   -0.596906    0.189184
H       0.372165   -1.404733   -1.762939
H       1.276159    0.124241   -1.835382
H       1.958471   -2.270144   -0.049672
H       2.918624   -0.789452   -0.208334
H       2.203945   -1.183953    4.053766
