19

C      -0.122532    1.426583    0.484105
C       0.731314    0.180275    0.388078
C       0.380027   -0.861404   -0.700288
C       1.785380   -0.536917   -1.263682
O       2.022167    0.441799   -0.236562
C       2.777658   -1.682990   -1.259553
O       2.694052   -2.589981   -2.061760
C       3.889296   -1.680006   -0.226561
O       4.708141   -2.801745   -0.369583
H      -0.288713    1.863155   -0.505608
H      -1.094756    1.187637    0.928873
H       0.366602    2.176247    1.113528
H       0.879535   -0.257217    1.383966
H       0.236051   -1.887685   -0.360778
H      -0.444798   -0.579669   -1.356106
H       1.789012   -0.092756   -2.267224
H       4.453225   -0.739378   -0.334223
H       3.432961   -1.633334    0.775375
H       4.336394   -3.293835   -1.119447
