16

C      -0.013741    0.082255   -0.071697
C       0.016640    0.128300    1.384742
C       1.433912   -0.095294    1.946643
H      -0.654514   -0.632319    1.800896
H      -0.357796    1.095619    1.740077
H       1.821476   -1.069026    1.636269
H       2.120106    0.670053    1.575059
C       1.463315   -0.047100    3.459374
F       2.703862   -0.243598    3.928929
F       0.673844   -0.989981    4.002634
F       1.039554    1.139720    3.927675
C      -0.010873    0.039439   -1.274573
C      -0.024477   -0.009439   -2.729657
H      -0.680531   -0.807021   -3.095283
H       0.977873   -0.196151   -3.130582
H      -0.380645    0.934543   -3.156591
