22

C      -0.051925    1.566581   -0.022716
C      -0.036269    0.028489   -0.002838
C       0.808879   -0.453350    1.192199
C      -1.469579   -0.518170    0.110131
C       0.599439   -0.542958   -1.279525
C       0.121316   -0.091848   -2.681035
C       1.596810    0.292511   -2.900047
O       1.931641   -0.028038   -1.534517
H       0.955810    1.959605   -0.180994
H      -0.702286    1.961413   -0.810212
H      -0.424879    1.955049    0.930638
H       0.411068   -0.061358    2.134250
H       0.812283   -1.547134    1.258979
H       1.845307   -0.118486    1.091884
H      -2.091656   -0.192229   -0.730772
H      -1.479524   -1.613817    0.131624
H      -1.945507   -0.164364    1.030751
H       0.634034   -1.639419   -1.185565
H      -0.274609   -0.878391   -3.324831
H      -0.571071    0.751193   -2.680846
H       2.139552   -0.343297   -3.611600
H       1.802457    1.343032   -3.135985
