21

C      -1.404480   -0.314144   -0.000509
O      -0.035472    0.025099   -0.128452
C       0.679653   -0.696797   -1.131850
C       0.332962   -0.132063   -2.507779
O       0.566365    1.260637   -2.555567
C       2.211570   -0.705235   -0.839196
C       2.170406   -2.237444   -0.828322
C       1.232154   -2.715595    0.237743
C       0.654763   -2.229332   -1.065401
H      -1.998621   -0.014752   -0.875261
H      -1.536078   -1.392681    0.158216
H      -1.781814    0.221532    0.873931
H       0.961130   -0.601890   -3.271467
H      -0.714534   -0.374541   -2.756004
H       0.253561    1.603934   -1.708744
H       2.787164   -0.266359   -1.655511
H       2.501461   -0.231280    0.102310
H       2.906123   -2.889716   -1.281217
H       1.187801   -3.790223    0.381963
H       1.092827   -2.131961    1.143878
H       0.061865   -2.870972   -1.707199
