20

C       0.228699    0.014620    1.023033
C      -0.359329    0.213041   -0.381606
O      -0.075819    1.516415   -0.887579
C       0.085929   -0.835786   -1.305774
C       0.494336   -1.675927   -2.066817
C       1.007825   -2.684771   -2.990420
C       2.507705   -2.570712   -3.220193
C       3.086738   -2.955759   -4.529223
N       3.046834   -1.540381   -4.114956
H      -0.076734   -0.949048    1.441208
H       1.322625    0.037952    0.985825
H      -0.118806    0.816690    1.679440
H      -1.453564    0.182401   -0.310263
H       0.859717    1.536065   -1.118660
H       0.777669   -3.686681   -2.602974
H       0.488764   -2.606353   -3.955963
H       3.105166   -2.716435   -2.322845
H       4.080672   -3.390223   -4.584542
H       2.403590   -3.292968   -5.305393
H       2.284230   -1.061086   -4.588997
