13

O      -0.064793   -0.045260    0.003619
C      -0.067126    1.174375    0.006771
C       1.204385    1.927286    0.000092
N       2.206134    2.504348   -0.005221
C      -1.255256    1.985757    0.016943
C      -1.465451    3.363543    0.021991
C      -2.855375    3.573717    0.031797
C      -3.461687    2.323355    0.032730
N      -2.491578    1.379176    0.023854
H      -0.687872    4.111764    0.018688
H      -3.369189    4.521920    0.037640
H      -4.505802    2.052044    0.039070
H      -2.604355    0.377761    0.022111
