18

C      -0.008957    1.560177   -0.020005
C      -0.034963    0.026346    0.051088
C       0.785585   -0.501914    1.237138
N      -1.400834   -0.501208    0.048817
C      -2.316105   -0.176386    1.131268
C      -1.837802   -1.304551   -0.964242
O      -2.945324   -1.792141   -1.059954
H       1.020396    1.913000   -0.134616
H      -0.593491    1.921381   -0.870889
H      -0.412011    2.013543    0.891049
H       0.423086   -0.357563   -0.868069
H       0.765662   -1.594935    1.269338
H       1.827211   -0.179117    1.146663
H       0.406500   -0.123332    2.191647
H      -2.507163    0.900807    1.185343
H      -3.253169   -0.694293    0.926888
H      -1.924870   -0.509521    2.098244
H      -1.046033   -1.472952   -1.720865
