17

O      -0.004863    1.168129   -0.642240
C       0.039555   -0.027126    0.127010
C      -1.341655   -0.631120    0.116381
C      -1.963230   -1.318314   -1.073998
N      -1.000427   -2.144054   -1.815000
C      -0.670900   -2.891436   -0.642663
N       0.044035   -3.902347   -0.397873
C      -1.634914   -2.113148    0.208579
O      -2.391085   -2.605249    1.239487
H       0.828800    1.632776   -0.521773
H       0.771986   -0.738635   -0.282967
H       0.335880    0.172829    1.167396
H      -2.078386   -0.063652    0.682617
H      -2.916902   -1.052831   -1.509788
H      -0.251830   -1.681568   -2.323225
H       0.546297   -4.213803   -1.231878
H      -2.589624   -3.529031    1.045056
