20

C      -0.004125    1.509884   -0.127657
C       0.038098   -0.018529   -0.054232
C       0.747380   -0.528757    1.206051
C       0.782976   -2.053940    1.310744
O       1.440569   -2.659612    0.215226
C       1.260686   -2.630600    2.663597
O      -0.082595   -3.164529    2.917745
C      -0.529441   -2.733982    1.693003
N      -1.622114   -2.899836    1.099071
H       1.005086    1.936886   -0.121205
H      -0.502929    1.848333   -1.040874
H      -0.547578    1.933299    0.724292
H      -0.979978   -0.423513   -0.083020
H       0.559377   -0.410786   -0.935682
H       1.784770   -0.168906    1.222452
H       0.255107   -0.124673    2.100342
H       0.788640   -2.769026   -0.486395
H       1.991635   -3.435245    2.570599
H       1.547114   -1.912907    3.434970
H      -2.274771   -3.461644    1.648835
