20

C      -0.076733    1.476102    0.026510
C       0.028971   -0.020162   -0.016096
C       0.014656   -0.882918   -1.281224
C      -0.246881   -2.086631   -0.340606
C       1.069993   -2.211127    0.467129
C       0.699703   -0.864574    1.095414
C       1.313794   -0.274626    2.330993
C      -0.764652   -1.062933    0.749490
H       0.830680    1.952618   -0.364629
H      -0.919749    1.824569   -0.581482
H      -0.231806    1.849378    1.043421
H      -0.858581   -0.647071   -1.898298
H       0.910736   -0.919850   -1.914261
H      -0.772840   -2.970751   -0.694790
H       1.019647   -3.010964    1.213230
H       2.005952   -2.298126   -0.099864
H       2.348975    0.041119    2.151666
H       0.760900    0.599278    2.688891
H       1.329698   -1.007448    3.146150
H      -1.663882   -0.992037    1.345982
