14

N       0.108225    1.306342   -0.267456
C      -0.092267   -0.031399   -0.050284
N      -1.221358   -0.573728   -0.333940
C      -1.440845   -1.917527   -0.003208
N      -2.413252   -2.260099    0.734016
N      -0.595149   -2.843917   -0.670736
C       0.661116   -2.791625   -0.459093
N       1.377112   -1.959691    0.410109
C       1.043057   -0.740394    0.599463
H       1.046897    1.649501   -0.387047
H      -0.607757    1.773425   -0.803716
H      -2.452713   -3.279428    0.786743
H       1.299391   -3.523645   -0.953667
H       1.666023   -0.148056    1.275687
