16

O      -0.045275    1.325739    0.240733
C       0.020654   -0.033399   -0.047329
C       1.394509   -0.736427    0.240071
O       1.571303   -1.740487   -0.818899
C       0.223792   -1.975646   -0.995199
N      -0.403810   -2.844089   -0.315611
C      -1.662641   -2.184585    0.110086
C      -1.400203   -0.693555   -0.142126
C      -0.471315   -0.654796   -1.311153
H       0.586922    1.789982   -0.320976
H       2.202572   -0.004758    0.141600
H       1.451054   -1.235926    1.211339
H      -2.551408   -2.525011   -0.438892
H      -1.808088   -2.443158    1.164318
H      -2.201342    0.030788   -0.040336
H      -0.582374   -0.223168   -2.297482
