19

O      -0.014495   -0.041432    0.408557
C      -0.029438    1.114632    0.085830
C      -1.329035    1.912807    0.000206
C      -2.014084    1.843867   -1.379322
C      -1.269137    2.565037   -2.500983
O      -0.001962    1.963472   -2.732552
C       1.130191    2.716900   -2.363825
C       1.234779    2.963925   -0.857516
O       1.160498    1.741085   -0.135818
H      -1.984299    1.441828    0.735936
H      -1.192200    2.955228    0.304910
H      -2.132326    0.791747   -1.660152
H      -3.020784    2.270536   -1.295728
H      -1.844805    2.487234   -3.431580
H      -1.160553    3.636102   -2.275837
H       1.990040    2.126583   -2.693785
H       1.159293    3.689345   -2.883176
H       2.214595    3.392422   -0.626515
H       0.476384    3.676724   -0.517293
