20

C      -0.134549    1.508962    0.038909
C       0.001198    0.020062   -0.017349
C      -0.041690   -0.761418   -1.098244
C       0.086639   -2.226990   -0.770404
C       0.519777   -2.228467    0.723353
C       2.015758   -2.500721    0.865765
O       2.285403   -3.807465    0.377842
C       0.175018   -0.806309    1.241625
H       0.749230    1.973240    0.495776
H      -0.268988    1.941502   -0.956414
H      -0.992185    1.806364    0.656698
H      -0.183997   -0.399012   -2.111744
H      -0.870195   -2.747873   -0.913865
H       0.814424   -2.756288   -1.394759
H      -0.007905   -3.003137    1.287027
H       2.578630   -1.739267    0.300729
H       2.305401   -2.408376    1.925009
H       3.237513   -3.939857    0.380741
H       0.957930   -0.402681    1.899271
H      -0.747358   -0.799678    1.839370
