23

C       0.028836    1.601749    0.113739
C      -0.070551    0.085271   -0.088766
C       0.705220   -0.458852   -1.299353
C       0.233681    0.155622   -2.613736
C       2.250320   -0.476470   -1.058816
C       2.165590   -1.962993   -0.634860
C       0.759272   -2.043925   -1.304559
C      -0.286685   -2.812760   -0.663870
C      -1.152237   -3.448742   -0.120693
H       1.069593    1.935014    0.191552
H      -0.436159    2.155799   -0.707132
H      -0.479489    1.897462    1.036699
H       0.284682   -0.420012    0.817438
H      -1.123818   -0.202202   -0.191823
H       0.420577    1.233909   -2.645218
H       0.756859   -0.291575   -3.465708
H      -0.841545   -0.001890   -2.760169
H       2.808978   -0.342520   -1.989831
H       2.641324    0.227271   -0.320316
H       2.924778   -2.646600   -1.019985
H       2.101188   -2.089227    0.447763
H       0.869953   -2.381902   -2.341314
H      -1.914457   -4.014047    0.355281
