24

C       0.003630    1.544666   -0.384833
C      -0.000660    0.051836   -0.106272
C      -1.275690   -0.650157   -0.532989
C       1.290081   -0.697990   -0.145058
N       0.589148   -0.499469    1.125009
C       1.205577    0.359839    2.113483
C       0.284788    0.900187    3.238752
C       1.420676    0.601207    4.254652
C       2.049234   -0.354622    3.203641
H       0.952230    2.020531   -0.128947
H      -0.177682    1.724780   -1.450045
H      -0.794094    2.049287    0.172704
H      -1.429338   -0.561210   -1.614706
H      -1.236617   -1.709764   -0.270220
H      -2.147417   -0.210348   -0.034384
H       1.332587   -1.720601   -0.513311
H       2.197770   -0.119612   -0.318230
H       1.791958    1.181939    1.673898
H      -0.079956    1.926935    3.154195
H      -0.566597    0.227730    3.376063
H       2.047350    1.478808    4.437146
H       1.136447    0.174137    5.218545
H       1.697112   -1.381894    3.330460
H       3.136027   -0.359209    3.090018
