18

C       0.238659    1.718075    0.102013
C       0.176521    0.197864    0.142934
C       1.015106   -0.692905   -0.825787
C       2.473250   -0.346997   -0.467755
N       2.279328   -0.973581    0.884242
C       1.147973   -1.742113    0.341736
C       0.850375   -0.596100    1.263867
C       0.512069   -0.639213    2.694057
O      -0.413514   -0.028575    3.176120
H       1.260678    2.099680    0.174063
H      -0.201396    2.100347   -0.825476
H      -0.328057    2.132173    0.940982
H      -0.866625   -0.132058    0.098084
H       0.686736   -0.872584   -1.847645
H       3.200649   -0.953976   -1.011985
H       2.791402    0.699541   -0.463825
H       1.004405   -2.808986    0.454910
H       1.176467   -1.285761    3.306108
