16

C       0.085975    1.529830    0.004303
C       0.041690    0.033240    0.001405
C       0.010738   -0.807719   -1.089004
O      -0.016627   -0.572268   -2.428343
N       0.024666   -2.100563   -0.673110
C       0.043539   -2.130371    0.720472
C       0.062405   -0.827784    1.152453
N       0.185314   -0.353181    2.477136
H       0.828244    1.898623    0.721632
H       0.368812    1.932227   -0.976672
H      -0.875122    1.992857    0.268925
H      -0.061379    0.379228   -2.562889
H      -0.016575   -2.893271   -1.287235
H       0.060609   -3.062826    1.258829
H       0.069586   -1.097500    3.154274
H      -0.495544    0.368868    2.685774
