15

N       0.116738    1.392387    0.128769
C      -0.010532    0.002443    0.022069
C      -1.136655   -0.797835   -0.000926
C      -0.634661   -2.135010   -0.000276
C       0.757694   -2.101226    0.012761
N       1.141929   -0.765482   -0.005186
C       1.186153   -3.439800   -0.022629
N       0.131500   -4.258447   -0.044786
N      -0.966307   -3.451713   -0.037397
H       0.651707    1.799612   -0.631460
H      -0.786997    1.844500    0.172381
H      -2.156137   -0.450736   -0.051347
H       2.031422   -0.406975    0.296868
H       2.182043   -3.855967   -0.019983
H      -1.874090   -3.879094   -0.068010
