13

F      -0.013909    0.012737   -0.337516
C      -0.032047    1.316174   -0.074151
C      -1.185501    1.992644    0.064425
N      -1.194290    3.336271    0.335766
C      -0.048971    4.105313    0.488957
N      -0.165129    5.349983    0.740252
N       1.118018    3.360686    0.336714
C       1.256840    1.990506    0.060006
O       2.347892    1.475647   -0.046286
H      -2.148693    1.508197   -0.031791
H      -2.059863    3.840228    0.438861
H       0.736972    5.809217    0.831326
H       1.996764    3.849704    0.433780
