18

C       0.081553    1.477483    0.050813
C      -0.002625   -0.017170    0.114010
N       1.196258   -0.840638   -0.098906
C       0.462681   -0.997422    1.170791
C       1.214370   -0.783605    2.450113
O       2.114715   -1.849914    2.715377
C      -0.802191   -1.816867    0.951015
O      -1.939518   -0.969179    1.184025
C      -1.258898   -0.866401   -0.076100
H       1.031455    1.830342    0.459799
H       0.014422    1.828414   -0.985229
H      -0.737903    1.929591    0.617723
H       1.025286   -1.614643   -0.738425
H       1.738681    0.182378    2.410480
H       0.515663   -0.752781    3.291696
H       2.731983   -1.874770    1.975368
H      -0.954627   -2.886711    1.028942
H      -1.845000   -1.036932   -0.972124
