18

C      -0.111158    1.537273   -0.030993
C       1.314595    1.060397    0.105999
C       0.195125    0.063375   -0.031551
N      -0.166395   -0.678032    1.149573
C       0.344860   -2.080665    1.218449
C      -0.876511   -2.535963    2.067273
O      -1.184896   -3.693600    1.241812
C      -0.757738   -2.694708    0.275506
C      -1.416454   -1.490955    1.049443
H      -0.590622    1.930857    0.857719
H      -0.417770    1.998948   -0.962703
H       1.990129    1.193568   -0.731353
H       1.772986    1.140285    1.084822
H       0.114320   -0.453987   -0.991395
H       1.398175   -2.342709    1.321091
H      -0.999975   -2.595310    3.146915
H      -0.749464   -2.971995   -0.778265
H      -2.415912   -1.065683    0.955108
