21

C      -0.013688    1.528497    0.029504
C      -0.017641    0.020868    0.095618
C      -1.319079   -0.717838   -0.254169
C      -1.332143   -2.015735    0.561382
C      -2.653378   -2.606206    0.982868
N      -0.215260   -2.922613    0.212957
C      -0.101362   -2.037987    1.399245
C       0.709409   -0.784651    1.128056
N       1.259246   -0.634576   -0.225652
H       0.962391    1.916415    0.330958
H      -0.208327    1.876868   -0.991869
H      -0.781727    1.959076    0.682237
H      -2.175197   -0.099353    0.040181
H      -1.412826   -0.909029   -1.329516
H      -3.228605   -2.951119    0.115485
H      -2.506170   -3.463177    1.649326
H      -3.265231   -1.869018    1.513860
H      -0.438409   -3.869725    0.511457
H      -0.081580   -2.487096    2.386543
H       1.287762   -0.350102    1.937891
H       1.099740   -1.511860   -0.722355
