18

C       0.129166    1.611657   -0.023790
C       0.052315    0.079385   -0.007131
C       0.711418   -0.591099   -1.194081
C       1.537280   -1.578539   -0.857714
C       1.625404   -1.762626    0.638472
N       2.985823   -1.508123    1.162465
C       2.906171   -0.398353    1.766949
O       1.720003    0.252726    1.853983
C       0.745072   -0.603624    1.202358
H       1.166228    1.954028   -0.040401
H      -0.377625    2.004614   -0.910927
H      -0.352968    2.041638    0.859161
H      -1.011361   -0.199346    0.017600
H       0.496580   -0.278618   -2.210995
H       2.111653   -2.192235   -1.541119
H       1.303387   -2.760893    0.953847
H       3.729179    0.116669    2.250862
H       0.030764   -0.904896    1.972156
