12

N      -0.001068    1.394480    0.157129
C      -0.038548    0.011897    0.049717
C      -1.096112   -0.850619    0.003376
O      -0.592147   -2.125240   -0.028882
C       0.750525   -1.963841    0.001332
N       1.132802   -0.715393    0.046421
C       1.559236   -3.118439   -0.021234
C       2.246369   -4.105566   -0.041188
H       0.887790    1.768976   -0.145744
H      -0.772680    1.871066   -0.287226
H      -2.166635   -0.751896   -0.007527
H       2.857326   -4.974361   -0.057933
