14

C       0.076154    1.549467    0.030711
C       1.300690    0.653380   -0.091785
C      -0.063209    0.063027    0.051843
C      -0.564716   -0.783057    1.227888
N      -1.392993   -1.829227    0.601628
C      -1.348685   -1.598424   -0.643399
O      -0.630196   -0.552017   -1.116781
H      -0.087194    2.088491    0.958645
H      -0.251199    2.068359   -0.863203
H       1.772615    0.587377   -1.065654
H       1.979295    0.576286    0.751923
H       0.253054   -1.244284    1.793536
H      -1.168670   -0.203823    1.935814
H      -1.849814   -2.178410   -1.410212
