20

C      -0.125507    1.582102   -0.035829
C       0.022397    0.057808   -0.021521
N       0.722592   -0.459733   -1.186303
C       0.094361   -0.687201   -2.405666
N      -1.149020   -0.478487   -2.588093
C       1.222927   -1.189690   -3.303057
N       2.435447   -1.184426   -2.481759
C       2.079509   -0.767559   -1.322302
C       3.017854   -0.620996   -0.169250
H       0.850362    2.078003   -0.040327
H      -0.680925    1.895632   -0.922653
H      -0.673675    1.915527    0.850925
H       0.552249   -0.273160    0.875898
H      -0.967965   -0.406798   -0.017497
H      -1.416202   -0.717800   -3.541568
H       1.012277   -2.199686   -3.675138
H       1.346548   -0.546031   -4.182268
H       4.020682   -0.887364   -0.502515
H       3.025583    0.405377    0.212446
H       2.732796   -1.277743    0.659965
