20

C      -0.294920    1.492221   -0.067242
C       0.140366    0.025420    0.049051
C       0.840623   -0.492435   -1.189194
C       0.013582   -1.007876   -2.341533
C       0.876305   -1.973709   -1.546224
C       2.232252   -2.220178   -2.113693
C       2.961394   -1.102316   -2.149147
C       2.224336    0.074094   -1.543710
H       0.565050    2.150841   -0.228367
H      -0.981077    1.631559   -0.909224
H      -0.803302    1.827227    0.842320
H       0.804703   -0.090142    0.916346
H      -0.738646   -0.598745    0.253116
H      -1.060624   -1.055726   -2.187520
H       0.315106   -0.786194   -3.360701
H       0.389093   -2.725221   -0.933216
H       2.548941   -3.190174   -2.480538
H       3.956630   -1.012190   -2.569748
H       2.164837    0.924672   -2.234905
H       2.739302    0.446835   -0.645808
