19

C      -0.045413    1.608307   -0.039600
C      -0.000079    0.078391    0.052218
C       0.745939   -0.594305   -1.159884
C       1.557145   -1.824813   -0.630947
C       1.634503   -1.513286    0.833865
C       0.799071   -0.494838    1.178322
N       0.917031   -0.365430    2.541744
C       1.833916   -1.312737    2.935465
N       2.284438   -2.030547    1.926996
H       0.966252    2.026618   -0.068832
H      -0.571907    1.927570   -0.945169
H      -0.569217    2.048240    0.816573
H      -1.036901   -0.288986    0.094728
H       0.050667   -0.863327   -1.959540
H       1.444367    0.139949   -1.575729
H       1.026854   -2.767776   -0.817388
H       2.531810   -1.910397   -1.122048
H       0.460781    0.300493    3.141852
H       2.131894   -1.417257    3.968526
