14

N       0.100334   -1.144580    0.073297
C       0.019596    0.011096    0.028449
C      -0.039233    1.420824   -0.061637
C      -1.131840    2.211240    0.042347
C      -0.730801    3.622321   -0.011208
C       0.541607    4.007788    0.867643
O       1.229259    2.876040    1.323485
C       1.177584    2.324253   -0.057085
C       0.674873    3.703728   -0.575007
H      -2.141074    1.866750    0.226556
H      -1.436202    4.422549   -0.193244
H       0.563623    4.906393    1.470494
H       2.139224    1.912642   -0.352637
H       0.991580    4.273000   -1.438608
