15

O      -0.073579    0.027941   -0.234496
C      -0.053913    1.203616   -0.038615
C      -1.065341    2.294554    0.359484
O       0.012298    3.266335    0.357618
C       0.975750    2.299413   -0.049394
C       2.408641    2.319095    0.359577
C       2.047769    2.606661   -1.091975
C       2.346236    1.673399   -2.134411
C       2.599664    0.890382   -3.010965
H      -1.833901    2.516281   -0.389141
H      -1.522426    2.177814    1.347844
H       2.729766    3.161405    0.962093
H       2.873331    1.365607    0.584592
H       2.066712    3.657706   -1.368484
H       2.815972    0.193148   -3.782031
