17

C       0.258150    1.403425    0.126779
N       0.135732   -0.043257    0.045542
C       0.507082   -0.647977   -0.990967
C       0.428347   -2.149842   -1.191449
C       0.935488   -2.335142   -2.592622
C       1.325682   -0.984795   -3.142631
O       1.046109   -0.045604   -2.105195
N       1.007168   -3.455337   -3.185734
O       1.523203   -3.291220   -4.483630
H       1.070184    1.660286    0.817964
H       0.454210    1.894316   -0.832901
H      -0.662965    1.812385    0.554664
H       1.046238   -2.667759   -0.451583
H      -0.596537   -2.506669   -1.059468
H       2.389550   -0.942656   -3.402956
H       0.750441   -0.731320   -4.040711
H       1.524894   -4.193008   -4.821821
