20

C       0.032277    1.588997    0.056146
C       0.046740    0.052771    0.067832
C       0.800996   -0.469819    1.300042
C      -1.409786   -0.498633    0.055252
C      -2.210089   -0.101612    1.206526
C      -2.867096    0.228054    2.157773
C       0.717146   -0.481431   -1.230651
C       2.106577   -0.057883   -1.388745
N       3.205115    0.282648   -1.503787
H       1.050294    1.988550    0.041984
H      -0.494758    1.974714   -0.823853
H      -0.475071    1.971404    0.945385
H       0.310951   -0.133205    2.217061
H       0.826801   -1.565287    1.315065
H       1.832978   -0.107674    1.308256
H      -1.911902   -0.162865   -0.862249
H      -1.377057   -1.595412    0.003518
H      -3.454309    0.515072    2.994716
H       0.691440   -1.577860   -1.241427
H       0.155053   -0.141920   -2.109122
