14

O       0.061627   -0.049107   -0.057963
C       0.113096    1.148529   -0.159723
C       1.381917    1.923164   -0.091288
N       2.749133    1.339502   -0.042157
C       2.941630    2.818812    0.043370
C       1.841801    3.099326   -1.045966
C       1.185540    4.120062   -0.127491
O       0.603275    5.158593   -0.198338
C       1.666171    3.130310    0.923175
H      -0.795119    1.777612   -0.295136
H       2.914023    0.894269    0.863493
H       3.913601    3.304222    0.113766
H       1.963175    3.026345   -2.123188
H       1.582262    3.093461    2.007585
