19

C      -0.014728    1.489300    0.012711
C      -0.001860    0.033869    0.003098
C       0.009075   -1.171240   -0.005264
C       0.011074   -2.611653   -0.003478
C       0.251832   -3.470202    1.301716
C      -0.364220   -4.592419    0.401760
C      -1.304414   -3.474170   -0.158925
C       0.685922   -4.656247   -0.716946
C       0.933506   -3.373451   -0.984220
H       0.687521    1.900020   -0.721435
H      -1.009728    1.880845   -0.227338
H       0.266721    1.884110    0.995496
H       1.287234   -3.590050    1.627048
H      -0.392585   -3.165026    2.131438
H      -0.749708   -5.522977    0.815008
H      -2.092494   -3.169356    0.535957
H      -1.694319   -3.597655   -1.171341
H       1.102370   -5.550410   -1.158229
H       1.599886   -2.908232   -1.695492
