16

C       0.068389    1.539291    0.165460
C       0.019825    0.021208    0.013350
O      -1.296397   -0.489158    0.120636
C       0.683316   -0.464234   -1.320582
C       0.782620   -1.996887   -1.273309
O       1.690399   -2.565406   -0.730276
C      -0.079980   -0.020721   -2.478689
C      -0.762767    0.306974   -3.413569
H       1.100890    1.902000    0.190641
H      -0.445121    2.030515   -0.667845
H      -0.425641    1.827093    1.097101
H       0.580858   -0.450834    0.826302
H      -1.810956   -0.113699   -0.605089
H       1.709102   -0.080008   -1.352600
H      -0.055947   -2.540729   -1.753390
H      -1.334965    0.605394   -4.257592
