21

C      -0.140840    1.589073    0.014445
C      -0.047235    0.089777   -0.024692
C       0.735446   -0.689476   -1.087899
C      -0.318153   -1.857827   -0.995719
C       0.192003   -3.122781   -0.362054
C       0.613496   -3.117882    0.901763
C       0.571691   -1.877502    1.759432
C      -0.318554   -0.768171    1.197116
C      -1.148360   -0.971139   -0.039591
H       0.806220    2.040204    0.336806
H      -0.379927    1.999052   -0.974142
H      -0.917189    1.923598    0.710780
H       0.697748   -0.188306   -2.059962
H       1.775740   -0.950021   -0.866527
H      -0.807194   -2.048794   -1.951632
H       0.238768   -4.028870   -0.959672
H       1.003635   -4.021786    1.362470
H       0.207057   -2.151395    2.758573
H       1.593112   -1.502915    1.923696
H      -0.831696   -0.197531    1.967533
H      -2.227024   -0.865579   -0.059526
