18

C      -0.124253    1.285675    0.318080
N      -0.058655   -0.119933   -0.007863
C      -1.178680   -0.830591   -0.585853
C      -0.719585   -2.316612   -0.622773
C       0.819695   -2.232081   -0.503338
C       1.114930   -0.828447    0.026130
O       2.187899   -0.404201    0.398378
C      -1.304449   -3.069223    0.554582
O      -1.964017   -4.071164    0.470314
H       0.854782    1.579928    0.699917
H      -0.363000    1.890241   -0.566577
H      -0.887497    1.476296    1.081598
H      -2.083369   -0.692115    0.021848
H      -1.412014   -0.465453   -1.596434
H      -1.049755   -2.817676   -1.533420
H       1.254989   -2.981443    0.162989
H       1.307375   -2.349336   -1.475711
H      -1.070303   -2.612708    1.545978
