15

N      -0.140855    1.378240    0.438073
C      -0.056942    0.029327    0.122927
C      -0.246085   -0.628797   -1.053000
O       0.039889   -1.960334   -0.829365
C       0.376945   -2.025709    0.472319
C       0.789462   -3.347695    1.017995
C       2.225386   -3.704859    0.633894
O       2.564271   -4.783971    0.231336
N       0.343478   -0.882592    1.089277
H      -0.288074    1.523811    1.427575
H      -0.809887    1.896362   -0.113279
H      -0.550723   -0.357990   -2.047364
H       0.747267   -3.281011    2.110994
H       0.130893   -4.151659    0.681033
H       2.951481   -2.873601    0.771609
