19

C      -0.336325    1.904363   -0.574934
C      -0.225551    0.421502   -0.269697
O       0.827329   -0.119232   -1.057057
C       1.037363   -1.499699   -0.861403
C      -0.036954   -2.324776   -1.581744
O      -0.325527   -3.455263   -1.289929
C       2.405214   -1.838946   -1.425343
C       2.825075   -3.219670   -1.679092
O       2.443039   -2.358280   -2.757377
H       0.604087    2.413272   -0.345887
H      -0.563248    2.062816   -1.632750
H      -1.132422    2.356342    0.023749
H      -0.011554    0.255037    0.798688
H      -1.176274   -0.090048   -0.490597
H       1.014916   -1.757544    0.210203
H      -0.524137   -1.776582   -2.416906
H       3.156569   -1.080076   -1.209093
H       3.883985   -3.467405   -1.635241
H       2.134838   -4.034136   -1.470009
