21

C      -0.420397    1.286137   -0.123052
C       1.058104    1.138313    0.134447
C       0.165470   -0.076480    0.155957
C      -0.197704   -0.835428    1.406584
C       0.895762   -1.566789    2.160360
C       0.244328   -0.348648    2.762182
C      -1.519052   -1.535263    1.264593
C      -2.426567   -1.888988    2.362692
O      -2.714574   -0.781637    1.510247
H      -1.024386    1.729332    0.660538
H      -0.754994    1.512531   -1.129192
H       1.740639    1.241484   -0.702096
H       1.451826    1.524605    1.067711
H       0.261458   -0.725845   -0.712586
H       0.662103   -2.535681    2.588857
H       1.909309   -1.469745    1.786661
H       0.824148    0.565092    2.814599
H      -0.421585   -0.483116    3.605966
H      -1.586165   -2.150931    0.363980
H      -3.083341   -2.751950    2.252399
H      -2.180053   -1.636200    3.392053
