15

O      -0.018568    0.010968    0.051703
C      -0.061392    1.208195    0.038858
C      -1.275233    2.152571    0.002296
C      -0.721556    3.288514   -0.896045
C       0.519672    3.581431   -0.014283
C      -0.127356    3.643922    1.370510
C      -1.175516    2.809657    1.380155
C       1.168323    2.187128    0.027472
O       2.325561    1.877049    0.029616
H      -2.217033    1.680233   -0.267519
H      -0.465162    2.954689   -1.907587
H      -1.401994    4.142642   -0.949247
H       1.187987    4.390877   -0.298963
H       0.290594    4.184434    2.209099
H      -1.786500    2.531181    2.228220
