18

C      -0.032262    1.551208   -0.141434
C      -0.036855    0.055301   -0.075643
C      -0.020063   -0.805467   -1.099158
C      -0.006763   -2.255419   -0.666710
C       0.065127   -2.169786    0.853593
N       1.255008   -1.519511    1.378175
C       0.019735   -0.699202    1.220994
C      -0.684235   -0.302826    2.458831
O      -0.453627   -0.792155    3.543223
H       0.860106    1.963986    0.344992
H      -0.048745    1.900124   -1.177230
H      -0.899655    1.986003    0.370471
H       0.020845   -0.514363   -2.143449
H      -0.907527   -2.791055   -0.992564
H       0.855078   -2.799311   -1.072169
H      -0.447546   -2.896960    1.474999
H       1.319049   -1.739766    2.374839
H      -1.464954    0.477418    2.337866
