21

C      -0.087924    1.551174   -0.007845
C       1.458409    1.518144   -0.123744
C       1.439105    0.099198    0.534408
C      -0.068332    0.006154    0.127074
C       2.402478   -0.946616    0.094078
C       3.236195   -1.663599    0.846567
C       4.033865   -2.609545   -0.000344
O       3.587269   -2.380019   -1.334781
C       2.584769   -1.369764   -1.346935
H      -0.412808    2.032963    0.918904
H      -0.650911    1.981850   -0.838556
H       1.779664    1.470208   -1.168377
H       2.036211    2.295104    0.382236
H       1.506886    0.211083    1.621469
H      -0.749777   -0.463964    0.839927
H      -0.190755   -0.481171   -0.844671
H       3.345709   -1.595703    1.922274
H       5.118909   -2.427338    0.067013
H       3.869379   -3.664839    0.272339
H       1.657649   -1.772274   -1.785971
H       2.906393   -0.535580   -1.991151
