21

C       0.852248    0.725749   -0.679124
C      -0.059381   -0.084515    0.226319
O       0.725423   -0.686324    1.237768
C      -0.022587   -1.469533    2.140409
C       0.943475   -2.086107    3.158921
O       0.224025   -2.770538    4.163965
C       1.932925   -3.016480    2.475503
C       2.606328   -4.087056    3.212720
O       1.473693   -4.375875    2.374138
H       1.605849    0.081631   -1.141315
H       0.272011    1.205432   -1.472922
H       1.368792    1.502691   -0.108409
H      -0.828559    0.561708    0.681256
H      -0.590986   -0.859571   -0.350807
H      -0.767252   -0.861998    2.677265
H      -0.565151   -2.272599    1.611997
H       1.494503   -1.271291    3.644025
H       0.049719   -3.650663    3.799428
H       2.388336   -2.622812    1.569579
H       3.555482   -4.477234    2.851019
H       2.423050   -4.191674    4.279358
