17

C       0.155222    1.255855    0.694072
C      -0.074869   -0.066639   -0.000497
C      -1.404891   -0.504983   -0.437448
O      -0.455367   -0.003576   -1.381622
C       1.443469    1.909294    0.285364
C       1.978338    2.025163   -0.974134
N       3.159689    2.713376   -0.807794
C       3.288492    2.981176    0.521260
N       2.273781    2.510588    1.209108
H      -0.697850    1.914049    0.485085
H       0.180829    1.101073    1.778099
H       0.671275   -0.834806    0.208299
H      -1.628784   -1.567674   -0.519736
H      -2.266793    0.136394   -0.256530
H       1.634305    1.687710   -1.936895
H       3.808173    2.963294   -1.535178
H       4.136596    3.514669    0.923756
