15

O      -0.084618    1.445224   -0.137431
C       0.005846    0.030869    0.005776
C       0.506429   -0.442040    1.424736
O      -0.618622   -0.925959    2.202433
C      -1.633360   -1.048850    1.303508
C      -1.353166   -0.571068    0.053979
N      -2.475295   -0.757061   -0.684789
N      -3.456999   -1.334385    0.034414
C      -2.954814   -1.523140    1.264167
H       0.805070    1.788426   -0.274126
H       0.658624   -0.380975   -0.776714
H       1.223514   -1.264418    1.325489
H       0.968819    0.386483    1.967528
H      -2.659998   -0.502511   -1.639414
H      -3.561692   -1.978236    2.030307
