14

O       0.219340    0.197098   -0.835280
C       0.081723    1.229107   -0.255466
C      -1.144629    2.037657    0.236247
C      -0.180414    3.151083    0.726090
C       0.372968    2.901909    2.148601
O       1.414616    2.036534    1.642219
C       1.057668    2.317334    0.262313
C       0.923777    4.081485    2.822181
N       1.338343    5.025483    3.343530
H      -1.779460    2.345624   -0.600307
H      -1.776151    1.555199    0.987367
H      -0.376893    4.175610    0.424557
H      -0.298545    2.377346    2.838228
H       1.904014    2.651725   -0.340287
