25

C       0.410638    1.541812   -0.484699
C       0.296885    0.045353   -0.238766
O      -1.062267   -0.320752   -0.390474
C      -1.407795   -1.630014    0.023407
C      -0.732368   -2.705231   -0.827659
C      -1.338665   -1.912569    1.559287
C      -2.782616   -2.486565    1.485047
C      -3.760801   -2.135683    2.595832
C      -2.945850   -1.790296    0.104384
H       1.451374    1.867778   -0.394119
H       0.054915    1.791389   -1.488566
H      -0.193899    2.096991    0.238228
H       0.935518   -0.502145   -0.948844
H       0.651238   -0.203728    0.774302
H       0.352788   -2.717280   -0.684529
H      -1.107801   -3.698333   -0.562090
H      -0.940525   -2.532155   -1.888577
H      -0.545244   -2.568440    1.927949
H      -1.316057   -0.971518    2.117604
H      -2.748702   -3.574233    1.358733
H      -3.816924   -1.050705    2.740009
H      -4.770851   -2.493398    2.365433
H      -3.459060   -2.583826    3.549428
H      -3.412803   -0.806329    0.201890
H      -3.437721   -2.343449   -0.700216
