14

N      -0.110267    1.217633    0.259149
C      -0.042771   -0.018882    0.013462
O       1.146520   -0.713944   -0.223692
C       0.789445   -2.028581   -0.606258
C       1.012724   -3.377447    0.144519
O       0.291127   -3.410088    1.371164
C      -0.462143   -3.597406    0.158227
C      -0.670944   -2.169398   -0.307320
C      -1.174609   -0.983916    0.027671
H       0.819491    1.638521    0.271059
H       1.050341   -2.193359   -1.661216
H       1.826943   -4.081726    0.021953
H      -1.050682   -4.498371    0.055178
H      -2.146911   -0.704131    0.404775
