17

C      -0.014606    1.524153    0.004551
C       0.000158    0.014160   -0.008736
C      -0.049774   -0.694731   -1.209012
C      -0.024686   -2.090239   -1.205651
C       0.052789   -2.761285   -0.003977
F       0.063347   -4.110379    0.023462
C       0.108033   -2.092018    1.224957
N       0.243265   -2.821796    2.404284
C       0.076596   -0.696003    1.193298
H       0.950875    1.931184    0.327864
H      -0.226711    1.927556   -0.989025
H      -0.772512    1.912653    0.693513
H      -0.111237   -0.162162   -2.151797
H      -0.070269   -2.663273   -2.124721
H      -0.057330   -3.782342    2.325028
H      -0.133352   -2.371274    3.225173
H       0.117489   -0.154363    2.135006
