14

N       0.151427    1.364462   -0.174769
C       0.080957   -0.035987   -0.062878
N      -1.116559   -0.608677    0.026444
N      -1.207408   -1.937160    0.078545
C      -0.106450   -2.677130    0.059280
C       1.183133   -2.141258   -0.057545
O       2.264640   -2.946279   -0.119728
C       1.273964   -0.764008   -0.132857
O       2.495599   -0.175882   -0.286303
H       0.674122    1.791030    0.583957
H      -0.787723    1.748754   -0.190878
H      -0.239723   -3.752521    0.119407
H       3.044313   -2.390687   -0.252123
H       2.349689    0.693851   -0.685496
