14

C      -0.087669    1.502240   -0.025667
N       0.081723    0.058483   -0.012877
C       0.702295   -0.607127   -0.997198
N       1.195158    0.006470   -2.021540
C       1.706941   -0.752324   -3.032510
N       1.389889   -1.982885   -3.365346
O       2.163234   -2.255680   -4.447209
N       2.935445   -1.131499   -4.742542
N       2.661502   -0.238250   -3.908136
H       0.880043    2.012226    0.018856
H      -0.589374    1.814732   -0.945183
H      -0.691456    1.793329    0.834890
H      -0.213996   -0.461005    0.794842
H       0.757491   -1.690825   -0.857232
