19

C      -0.324623    1.441773    0.059669
C       0.084500   -0.017725    0.014359
O       1.291792   -0.214957   -0.775609
C       1.995780   -0.811485    0.330772
C       0.779248   -0.642384    1.229641
C       0.687949   -0.278931    2.689758
O      -0.275587    0.626276    3.135491
C       0.210520   -1.630634    2.201678
O      -1.186951   -1.787911    2.133552
H       0.463410    2.056955    0.501251
H      -0.514662    1.793619   -0.959487
H      -1.236102    1.575579    0.648518
H      -0.734049   -0.635419   -0.378224
H       2.292095   -1.849186    0.123653
H       2.887143   -0.234853    0.613315
H       1.606406   -0.209975    3.267190
H      -1.131505    0.223677    2.930988
H       0.772349   -2.536935    2.425198
H      -1.480236   -2.189038    2.959676
