18

O      -0.010059    1.428131   -0.074072
C       0.016014    0.019183    0.030870
C       0.576018   -0.544217    1.365654
C      -0.158478   -1.870468    1.499961
C      -1.601906   -1.924036    1.917636
C      -2.318025   -0.645301    2.171328
C      -2.258706    0.129768    1.088657
C      -1.423141   -0.545818    0.018883
N      -1.239149   -1.960258    0.480062
H       0.895042    1.743781   -0.152603
H       0.567211   -0.424809   -0.811942
H       1.659199   -0.688981    1.339349
H       0.345111    0.159361    2.170885
H       0.434234   -2.774642    1.611026
H      -1.984591   -2.849975    2.341152
H      -2.800984   -0.409019    3.111290
H      -2.636692    1.138869    0.990676
H      -1.865691   -0.516945   -0.980260
