19

C      -0.122182    1.496275    0.042831
C      -0.003780   -0.014771    0.001723
O      -1.335569   -0.555834    0.069226
C      -1.415814   -1.886666    0.050633
N      -0.434565   -2.715283    0.018308
C      -1.019466   -4.031717   -0.003939
C      -1.831964   -4.477198    1.196044
C      -2.541195   -3.848439    0.025824
N      -2.698409   -2.413073    0.111402
H       0.873531    1.946838   -0.005225
H      -0.709013    1.866068   -0.802931
H      -0.605670    1.824922    0.967156
H       0.475872   -0.365350   -0.918127
H       0.577852   -0.407003    0.842037
H      -0.503303   -4.778188   -0.597744
H      -1.962101   -5.546650    1.324675
H      -1.750952   -3.906219    2.115501
H      -3.264956   -4.392595   -0.568305
H      -3.432821   -1.951434   -0.403432
