20

C      -0.448664    1.444083   -0.192767
C       0.172419    0.057284   -0.209041
C       1.638080   -0.137725   -0.698614
C       1.820682   -1.225067    0.396696
C       0.588420   -0.640469    1.106904
C       0.715776    0.112108    2.449854
C      -0.265730   -0.926838    2.944187
N      -0.822652   -1.169200    4.041028
O      -0.363156   -1.566027    1.725534
H       0.199976    2.168180    0.312270
H      -0.613288    1.806924   -1.212784
H      -1.417764    1.442780    0.318140
H      -0.480829   -0.641185   -0.744974
H       1.784653   -0.439651   -1.736999
H       2.249015    0.748342   -0.501693
H       1.601609   -2.227124    0.018485
H       2.759410   -1.251793    0.954848
H       1.698690    0.077015    2.923409
H       0.338073    1.135604    2.469493
H      -1.437048   -1.982374    3.969328
