18

N       0.091651    1.368981   -0.184588
C       0.080795    0.126407    0.062158
O       1.226179   -0.545047    0.360455
C       1.186292   -1.754472    1.139027
C       0.053161   -2.683884    0.735024
C      -1.268563   -1.921783    0.810388
C      -1.201456   -0.683565   -0.090693
C      -2.430249    0.211308    0.050060
O      -3.382493   -0.090996    0.722995
H       1.035851    1.741792   -0.068136
H       2.167642   -2.212268    0.995207
H       1.090541   -1.478817    2.198496
H       0.224875   -3.057585   -0.282034
H       0.050238   -3.550993    1.404118
H      -2.115761   -2.543927    0.512314
H      -1.466099   -1.609504    1.842364
H      -1.199312   -1.016428   -1.142819
H      -2.386632    1.155176   -0.522007
