16

C       0.229474    1.409824   -0.166437
C       0.447586   -0.077591   -0.068499
O       1.749521   -0.547734    0.258944
C       0.706130   -0.806065    1.203342
C       0.770062   -0.124949    2.561606
C       1.988983   -0.469985    3.293811
N       2.952175   -0.736712    3.872210
C       0.271882   -2.245973    1.228744
O      -0.282377   -2.762205    2.163572
H       0.795494    1.956538    0.589692
H       0.560372    1.761301   -1.148728
H      -0.833742    1.649921   -0.065060
H      -0.036173   -0.656123   -0.859287
H       0.712986    0.961175    2.467656
H      -0.092894   -0.463279    3.144724
H       0.504889   -2.790647    0.288738
