18

C      -0.107091    1.553539    0.008644
C       0.089385    0.042012    0.023618
C       0.900763   -0.513616   -1.190076
N       1.692903   -1.559916   -0.541441
C       1.686924   -1.271905    0.799292
N       0.834740   -0.411169    1.220254
C       2.679307   -1.982728    1.680162
N       2.487264   -1.745538    2.996644
O       3.555537   -2.683076    1.202530
H       0.859571    2.067564   -0.001472
H      -0.672151    1.865138   -0.876390
H      -0.654723    1.877072    0.897804
H      -0.897698   -0.442156    0.052151
H       0.263064   -0.917591   -1.980353
H       1.541871    0.266276   -1.628629
H       2.546295   -1.924235   -0.938315
H       1.764388   -1.099209    3.271606
H       3.136417   -2.118302    3.668080
