15

C       0.243344    1.512895   -0.074426
C      -0.044874    0.029683    0.076522
O       0.486995   -0.712835   -1.066653
C       1.694870   -1.266469   -0.805996
O       2.373341   -1.827913   -1.611091
C       1.971384   -1.033510    0.689600
O       3.028628   -1.082352    1.256007
C       0.649488   -0.622088    1.296788
O       0.775712    0.197358    2.418376
H       1.320318    1.709767   -0.073894
H      -0.177756    1.881713   -1.012611
H      -0.200142    2.061036    0.759673
H      -1.119459   -0.160013    0.066411
H       0.106678   -1.555204    1.535459
H       1.676291    0.072630    2.752136
