20

C       0.126763    1.501847   -0.109261
C      -0.032606   -0.021327    0.000281
C       0.735764   -0.770255   -1.134792
O       1.822972   -1.447248   -0.456621
C       1.616458   -1.212361    0.857990
N       0.651496   -0.483235    1.233006
C      -1.510796   -0.392692    0.020067
C      -2.002190   -1.670374    0.648325
C      -2.315819   -0.339280    1.290185
H       1.184475    1.779921   -0.150038
H      -0.363764    1.877609   -1.014064
H      -0.324196    1.990997    0.757538
H       0.123618   -1.527789   -1.632417
H       1.168821   -0.102403   -1.883929
H       2.336827   -1.689438    1.514272
H      -2.028208   -0.079080   -0.884231
H      -2.800749   -2.212237    0.153593
H      -1.273444   -2.295455    1.151658
H      -1.781655   -0.100204    2.202097
H      -3.331888    0.036257    1.240555
