15

O       0.118229    1.488363    0.031651
C       0.134486    0.122868   -0.032585
C      -0.135268   -0.717065    1.156342
O      -0.339486   -0.033232    2.357682
C      -1.255793   -0.547260    3.221773
O      -1.419713   -0.098061    4.310891
C      -1.207438   -0.682365    0.037414
C      -2.430373    0.114784    0.185705
O      -2.489459    1.175017    0.782281
H      -0.632577    1.756415    0.590965
H       0.857572   -0.238060   -0.756170
H       0.383448   -1.666393    1.262739
H      -1.804471   -1.407332    2.795907
H      -1.293877   -1.583281   -0.559748
H      -3.329662   -0.296779   -0.315047
