13

O       0.052953    1.334557   -0.020743
C       0.062406   -0.007590    0.003620
N       0.067332   -0.730071   -1.098077
N       0.076488   -2.028579   -0.639363
C       0.077189   -2.094430    0.699180
O       0.085608   -3.274361    1.330806
C       0.068079   -0.792421    1.194449
C       0.065743   -0.439089    2.555284
C       0.064272   -0.202018    3.738152
H       0.050926    1.601963   -0.949194
H       0.082030   -2.792720   -1.291540
H       0.084435   -3.095950    2.281123
H       0.062836    0.036150    4.772587
