19

C      -0.062772    1.405637    0.011586
O       0.011963    0.000217    0.003542
C      -1.251886   -0.615325    0.010086
C      -1.108762   -2.102255    0.001674
C       0.033552   -2.794873   -0.009550
C      -0.185020   -4.282118   -0.015445
C      -1.716374   -4.416570   -0.005620
O      -2.339137   -5.444627   -0.006392
C      -2.319614   -3.000505    0.005451
H       0.960989    1.786719    0.005580
H      -0.591793    1.791926   -0.874100
H      -0.577815    1.782462    0.909503
H      -1.834200   -0.301353    0.897841
H      -1.847622   -0.292628   -0.865545
H       1.013744   -2.336723   -0.014010
H       0.228081   -4.789712   -0.897231
H       0.240085   -4.798426    0.855509
H      -2.962118   -2.875078    0.887522
H      -2.973931   -2.866407   -0.866609
