19

C      -0.001518    1.540646   -0.006379
C       0.036960    0.036095   -0.035570
C       0.637671   -0.760079   -1.225644
C       0.913083   -2.097384   -0.605804
C       1.228523   -1.949588    0.877833
C       0.325297   -0.788439    1.282725
O      -1.051158   -1.265226    1.329195
C      -1.207965   -0.875662   -0.047266
C      -0.498458   -1.779911   -1.078868
H       1.005538    1.960847    0.101813
H      -0.430347    1.944263   -0.930238
H      -0.607864    1.901322    0.831240
H       1.105902   -0.355967   -2.113772
H       1.437065   -2.843137   -1.194635
H       0.996777   -2.838188    1.472270
H       2.288703   -1.702794    1.016758
H       0.601540   -0.262623    2.200303
H      -2.217128   -0.541168   -0.298877
H      -0.979014   -2.382694   -1.839891
