14

O       0.014186    1.356634    0.020663
C       0.067663   -0.030709    0.034221
C      -0.469522   -0.760528    1.250629
C      -1.301146   -0.742971   -0.020264
O      -2.361001    0.162940   -0.115188
C      -1.471328   -1.957763   -0.780632
N      -1.631660   -2.935519   -1.376676
C       1.181456   -0.591941   -0.679275
C       2.115464   -1.073736   -1.260322
H      -0.914619    1.599385   -0.107159
H      -0.010036   -1.698007    1.539314
H      -0.827764   -0.129732    2.057319
H      -3.044750   -0.080033    0.519930
H       2.935333   -1.498367   -1.785707
