18

C       0.390266    1.365672   -0.444103
N      -0.135701    0.094893    0.057400
C       0.512617   -0.312822    1.300143
C       1.934230   -0.618239    1.095086
N       3.054136   -0.853322    0.938885
C      -1.591958    0.115007    0.174740
C      -2.324240   -0.040942   -1.168073
N      -1.602229   -0.681042   -2.122607
O      -3.466149    0.346660   -1.309777
H       1.468991    1.285548   -0.599795
H      -0.078412    1.597468   -1.402942
H       0.195488    2.202232    0.249556
H       0.439796    0.448709    2.098833
H       0.025116   -1.217840    1.677418
H      -1.910691   -0.730207    0.795577
H      -1.981585    1.028306    0.650134
H      -0.659427   -0.972734   -1.923264
H      -2.022699   -0.861696   -3.018438
