21

C      -0.225134    1.446658   -0.325882
C       0.067849   -0.019323   -0.009585
C       1.070762   -0.633464   -0.982099
O       0.637584   -0.132831    1.309695
C      -0.221479   -0.567426    2.319156
C      -0.495609   -2.063472    2.410069
C       0.453461   -1.406132    3.377384
C      -1.269044    0.340089    2.725310
C      -2.147990    1.087968    3.066104
H       0.698146    2.033080   -0.278620
H      -0.645315    1.545676   -1.332378
H      -0.935859    1.864046    0.390135
H      -0.866620   -0.595507   -0.038353
H       2.029652   -0.109563   -0.914692
H       1.242809   -1.688753   -0.752339
H       0.708770   -0.556630   -2.012148
H      -1.467035   -2.383079    2.768040
H      -0.066918   -2.670967    1.621479
H       1.514847   -1.564226    3.227020
H       0.141238   -1.269839    4.405498
H      -2.918315    1.753228    3.368709
