15

C      -0.022978    1.472348    0.000298
C       0.013228    0.018762   -0.008345
C       0.064899   -1.187084   -0.009353
C       0.054726   -2.597738   -0.011453
N       1.152208   -3.370709   -0.089574
N       0.666296   -4.592893   -0.067628
N      -0.665322   -4.720698    0.015710
C      -1.078356   -3.456789    0.057391
N      -2.402413   -3.097104    0.206751
H       0.972296    1.885030    0.198147
H      -0.362648    1.873277   -0.961566
H      -0.698341    1.849868    0.776251
H       1.265999   -5.399471   -0.111201
H      -3.054823   -3.803207   -0.102748
H      -2.617153   -2.181797   -0.162240
