23

C       0.174234    0.868043   -1.525414
C      -0.162809    0.522503   -0.070598
C      -1.492087   -0.212321    0.066863
C      -1.538110   -1.679879   -0.389803
O      -0.660951   -2.421141    0.475473
C      -1.999381   -2.146217    0.928147
C      -2.847290   -3.301522    1.351577
C      -1.981292   -0.709486    1.493772
C      -1.121194   -0.459228    2.725580
H       1.130598    1.395176   -1.596823
H       0.248535   -0.034798   -2.141319
H      -0.594133    1.510380   -1.970880
H       0.631835   -0.098978    0.354782
H      -0.194662    1.443502    0.525293
H      -2.290726    0.363322   -0.415462
H      -1.707528   -2.090090   -1.380051
H      -2.735383   -4.134941    0.652793
H      -2.558465   -3.654259    2.348401
H      -3.903184   -3.014281    1.391158
H      -3.004174   -0.358115    1.668158
H      -0.127655   -0.897596    2.602424
H      -1.002375    0.611748    2.920153
H      -1.579443   -0.905064    3.615546
