21

C       0.195965    1.552385   -0.150738
C      -0.013969    0.035950    0.011066
C      -1.498885   -0.317587    0.083445
C       0.732649   -0.713168   -1.112761
O       2.103891   -0.692335   -0.733648
C       2.158188   -0.896839    0.671638
C       0.791246   -0.475927    1.219518
C       0.548920   -0.098908    2.612320
O       0.165821   -1.390750    2.125899
H       1.257689    1.792724   -0.257982
H      -0.323184    1.916989   -1.043665
H      -0.195094    2.101579    0.711497
H      -2.007540   -0.013124   -0.837702
H      -1.646552   -1.390264    0.226086
H      -1.990037    0.197825    0.915203
H       0.362845   -1.748478   -1.196701
H       0.650933   -0.232084   -2.091325
H       2.326227   -1.954942    0.921631
H       2.990432   -0.306819    1.068235
H       1.373912   -0.093303    3.324570
H      -0.275890    0.567890    2.863049
