18

C      -0.799360    1.089287   -0.467605
C      -0.262174   -0.314680   -0.185406
C       0.710978   -0.338187    1.005293
O      -0.002491    0.064130    2.157559
C       0.812005    0.348222    3.280017
C       1.306718   -1.671671    1.177611
C       1.784636   -2.772572    1.321527
C       2.326560   -4.015677    1.481355
N       2.789649   -5.072357    1.617457
H       0.009802    1.777246   -0.736740
H      -1.508721    1.067588   -1.299529
H      -1.309387    1.491811    0.410228
H      -1.082558   -1.003782    0.040740
H       0.261245   -0.713399   -1.060653
H       1.534439    0.371866    0.808314
H       1.361960   -0.539109    3.621010
H       1.534824    1.147725    3.058772
H       0.144154    0.681218    4.076785
