18

C      -0.396224    1.576933   -0.114316
C       0.048526    0.122550   -0.105226
C      -1.120759   -0.844933    0.003365
C       1.131610   -0.252519   -1.154132
C       2.036045   -0.491136    0.063120
O       1.003648   -0.105406    0.990373
C       2.476263   -1.918586    0.325696
O       2.727529   -2.723950   -0.532981
H       0.466850    2.246927   -0.161226
H      -1.039344    1.778602   -0.977791
H      -0.960010    1.808826    0.794873
H      -1.798338   -0.727075   -0.849178
H      -0.769973   -1.880707    0.022963
H      -1.687327   -0.657289    0.920964
H       0.935683   -1.146708   -1.747477
H       1.439440    0.562412   -1.810080
H       2.920834    0.160008    0.141045
H       2.535456   -2.167717    1.409311
