21

C      -0.002201    1.539140    0.076235
C       0.094110    0.031808    0.058831
C       0.426036   -0.654788   -1.272534
C       1.212686   -1.880954   -0.864900
C       1.418597   -1.926504    0.452497
C       0.774564   -0.785428    1.172038
C       1.435387   -0.201525    2.398350
C      -0.737165   -0.787197    1.028957
O      -1.456938   -0.126113    2.030571
H       0.952828    1.999128   -0.201266
H      -0.752439    1.891602   -0.643180
H      -0.283898    1.915380    1.062157
H      -0.479441   -0.912068   -1.839587
H       1.016359    0.003888   -1.926592
H       1.549578   -2.623230   -1.579703
H       1.962917   -2.703693    0.979110
H       2.394889    0.265290    2.150057
H       0.796539    0.543602    2.875472
H       1.631045   -0.986405    3.138313
H      -1.201418   -1.707126    0.668495
H      -2.194734    0.334314    1.616363
