16

O       0.235186    1.330010    0.382469
C       0.076037   -0.048758    0.160222
C      -1.394987   -0.517188   -0.046227
C      -2.533090    0.494411   -0.299534
C      -2.912303    0.195577   -1.743642
C      -2.022790   -0.605291   -2.331592
N      -1.011305   -1.007816   -1.408902
C       0.277038   -0.451371   -1.324891
O       1.133046   -0.252552   -2.139983
H       1.017448    1.611362   -0.107198
H       0.636011   -0.648698    0.889677
H      -1.702003   -1.333072    0.612084
H      -3.362134    0.348081    0.398100
H      -2.190137    1.530570   -0.188113
H      -3.776570    0.623620   -2.233800
H      -1.981813   -0.948101   -3.355423
