21

C      -0.011864    1.543137   -0.017339
C       0.029819    0.042080   -0.023324
C       0.134526   -0.679807   -1.158601
C       0.061039   -2.119693   -1.251224
C      -0.661049   -2.950088   -0.454079
C      -1.533904   -2.551823    0.637233
C      -2.762054   -3.406954    0.855727
C      -1.289627   -1.470455    1.404577
C      -0.011332   -0.679612    1.308206
H       0.815355    1.959593    0.572974
H       0.041969    1.957064   -1.027737
H      -0.936245    1.908621    0.447945
H       0.277911   -0.148116   -2.097776
H       0.548958   -2.566463   -2.115536
H      -0.700712   -4.000420   -0.738638
H      -3.413803   -3.412388   -0.025935
H      -2.479793   -4.450305    1.044888
H      -3.347176   -3.057700    1.710156
H      -2.031177   -1.157404    2.135674
H       0.848382   -1.361167    1.373684
H       0.066239    0.031304    2.135409
