19

C       0.009428    1.487472   -0.024899
C      -0.005262    0.032364   -0.024127
C      -0.022887   -1.173800   -0.025719
C      -0.011615   -2.593770   -0.005336
C      -0.422492   -3.472302   -1.187132
C      -1.125122   -3.635634    0.114759
O      -0.373568   -4.454763    1.002013
C       0.699925   -3.466299    1.047807
C       2.075593   -4.037410    0.784223
H       0.850066    1.872844    0.563069
H       0.108407    1.886580   -1.040687
H      -0.909990    1.899923    0.406189
H      -0.965790   -2.928771   -1.952868
H       0.229438   -4.262259   -1.548242
H      -2.189756   -3.529807    0.287413
H       0.669413   -2.962335    2.021429
H       2.138732   -4.500293   -0.203916
H       2.825999   -3.242451    0.847438
H       2.318348   -4.796571    1.534533
