14

O      -0.000417    0.016560    0.159797
C      -0.025442    1.210893    0.081552
N      -1.134524    2.043731   -0.130777
C      -0.690884    3.345018   -0.045800
C       0.619588    3.344680    0.167877
C       1.188078    4.687838   -0.145507
C      -0.170817    5.476886   -0.162798
O      -1.276496    4.517147   -0.352107
O       1.081196    2.033935    0.215054
H      -2.074411    1.688204   -0.099305
H       1.861738    5.112824    0.605239
H       1.703771    4.723022   -1.115379
H      -0.338344    5.968743    0.799062
H      -0.246849    6.206800   -0.968332
