21

C      -0.060184    1.347621   -0.371116
C      -0.161121   -0.003980    0.346245
C      -1.504815   -0.666279    0.129806
C      -1.777633   -1.485881   -1.093545
C      -1.645429   -2.181565    0.254685
O      -0.493470   -2.901580    0.561736
C      -0.351390   -4.109884   -0.168299
C      -2.886878   -2.671672    0.913603
O      -3.990113   -2.217183    0.723327
H       0.915667    1.811047   -0.196704
H      -0.191107    1.231883   -1.452050
H      -0.828384    2.043974   -0.017877
H       0.631092   -0.676097    0.003031
H       0.002421    0.136158    1.421742
H      -2.362968   -0.128033    0.524726
H      -2.769902   -1.465944   -1.530063
H      -0.955669   -1.638604   -1.785234
H       0.568139   -4.583505    0.182146
H      -1.192686   -4.795348    0.005063
H      -0.273617   -3.924069   -1.248013
H      -2.706792   -3.496380    1.639444
