19

C      -0.001759    1.574939   -0.120461
C       1.528269    1.579487   -0.090970
C       2.102875    0.819969    1.086677
C       1.485674    0.655284    2.448071
O       0.280153    1.363022    2.774669
C       0.206869   -0.058090    2.594386
C      -0.511579   -0.570242    1.363907
C       0.023599    0.012469    0.046720
C       1.560747    0.054634   -0.094566
H      -0.522552    2.160244    0.636120
H      -0.371353    1.845415   -1.113321
H       2.160819    2.266516   -0.641094
H       3.187752    0.871559    1.113454
H       2.198564    0.614345    3.271693
H       0.014308   -0.608042    3.516351
H      -0.408035   -1.664079    1.350645
H      -1.585570   -0.361839    1.453346
H      -0.463302   -0.489103   -0.792088
H       2.165882   -0.630788   -0.675760
