22

C      -0.143520    1.531545    0.183784
C      -0.004612    0.023172   -0.052207
C       0.792536   -0.414298   -1.308530
C       0.065206    0.033180   -2.591688
C       2.216759    0.170148   -1.284181
C       0.877407   -1.973287   -1.255169
C       1.505722   -2.594532   -2.481450
O       2.666282   -2.911920   -2.566835
H       0.827476    2.014856    0.326025
H      -0.650563    2.035166   -0.644901
H      -0.735138    1.716167    1.085920
H       0.473215   -0.426924    0.827887
H      -1.007419   -0.420601   -0.111166
H      -0.060505    1.119336   -2.614197
H       0.627364   -0.240582   -3.490324
H      -0.930109   -0.419674   -2.666259
H       2.716458   -0.050577   -0.334613
H       2.833074   -0.249416   -2.084079
H       2.199702    1.256456   -1.411222
H       1.470508   -2.270900   -0.384457
H      -0.136980   -2.378145   -1.145088
H       0.817474   -2.743727   -3.344729
