20

C      -0.093194    1.548722   -0.030736
C       0.023529    0.037645   -0.050727
C      -1.072740   -0.659395    0.735695
C       0.555495   -0.736683   -1.197746
C       1.667765   -0.015343   -1.969177
C       2.381886    0.102334   -0.585363
N       1.314712   -0.672536    0.129029
C       2.416780   -0.915807   -2.914936
O       2.688868   -0.641220   -4.055125
H       0.606501    2.056531   -0.695915
H      -1.103156    1.842585   -0.334283
H       0.068397    1.926909    0.985136
H      -2.055709   -0.452080    0.299619
H      -0.913705   -1.740210    0.748345
H      -1.078501   -0.308490    1.772931
H       0.078641   -1.652840   -1.536866
H       1.396207    0.902786   -2.495115
H       3.321471   -0.453743   -0.538722
H       2.555819    1.113519   -0.208954
H       2.723234   -1.890585   -2.467043
