27

C       0.752685    2.455664   -0.810714
C       0.448696    0.965278   -0.635997
C       1.094421    0.087904   -1.714411
C       0.776882   -1.403296   -1.551639
C       1.441773   -2.317389   -2.603083
C       2.949599   -2.503672   -2.319438
C       3.807872   -2.870525   -3.535688
C       0.683679   -3.646803   -2.652933
O       1.198888   -4.466165   -3.694011
H       1.830924    2.647108   -0.771034
H       0.389063    2.823114   -1.776913
H       0.279485    3.055981   -0.027241
H       0.792858    0.634284    0.352942
H      -0.638401    0.809283   -0.644623
H       0.753602    0.421253   -2.704615
H       2.180328    0.248186   -1.700589
H       1.076869   -1.733999   -0.546848
H      -0.313683   -1.528713   -1.596548
H       1.327245   -1.845408   -3.589714
H       3.342822   -1.577338   -1.884068
H       3.065020   -3.269897   -1.540027
H       3.741333   -2.094329   -4.306846
H       4.861899   -2.963782   -3.252641
H       3.480105   -3.811178   -3.979668
H       0.774831   -4.149582   -1.674795
H      -0.387216   -3.445064   -2.816437
H       0.737553   -5.309234   -3.667699
