21

C      -0.147678    1.536071   -0.058452
C       0.071853    0.020840   -0.031821
C       0.871209   -0.485361   -1.236854
O       2.224373   -0.062042   -1.151552
C       2.851492   -0.557283    0.034990
C       4.295256   -0.075491   -0.025136
O       4.934797   -0.518092   -1.203809
C       2.081083   -0.069078    1.258125
O       0.707259   -0.419530    1.172288
H       0.788748    2.076767   -0.217572
H      -0.828146    1.802165   -0.873741
H      -0.592529    1.867958    0.883374
H      -0.901434   -0.482729   -0.023145
H       0.824283   -1.584751   -1.273805
H       0.471949   -0.084361   -2.173348
H       2.832822   -1.659377    0.010033
H       4.308986    1.024120    0.052821
H       4.858663   -0.479933    0.822407
H       4.323272   -0.315174   -1.922146
H       2.458287   -0.545787    2.168252
H       2.206531    1.019196    1.364479
