18

C      -0.405641    1.529921    0.167580
C      -0.080695    0.049771    0.006452
C       0.793406   -0.438797   -1.196078
C       1.622725    0.505814   -2.102990
C       3.051695    0.176074   -1.694987
C       3.083956   -0.621698   -0.625720
N       1.775496   -0.991978   -0.216038
C       1.079393   -0.457785    0.895289
O       1.367078   -0.392464    2.055021
H       0.487312    2.155960    0.080529
H      -1.129327    1.858788   -0.584631
H      -0.835490    1.707956    1.157391
H      -0.989663   -0.548762    0.123709
H       0.320750   -1.230160   -1.783406
H       1.428612    0.302722   -3.160611
H       1.405306    1.571068   -1.948000
H       3.922980    0.573118   -2.198408
H       3.939747   -0.983275   -0.073234
