19

C       0.062769    1.554717    0.257442
C      -0.008197    0.046521   -0.045990
C      -1.400075   -0.494843   -0.087866
C      -2.252552   -0.727199   -1.155433
O      -1.906223   -0.495825   -2.449728
C      -2.886149   -0.839940   -3.409910
C      -3.452146   -1.217683   -0.592507
N      -3.362615   -1.288050    0.737321
N      -2.126175   -0.845150    1.011017
H       1.101361    1.899965    0.267960
H      -0.481368    2.126917   -0.499279
H      -0.380140    1.785324    1.231709
H       0.454597   -0.151281   -1.017928
H       0.582380   -0.505386    0.696761
H      -2.460037   -0.610161   -4.388058
H      -3.134964   -1.908951   -3.365094
H      -3.806720   -0.256851   -3.271020
H      -4.361890   -1.522487   -1.085654
H      -1.820749   -0.821727    1.969264
