17

C       0.033072    1.514243    0.014195
C       0.024291    0.009784    0.033232
N       0.031841   -0.622368   -1.143379
C       0.022676   -1.957844   -1.122425
C       0.010786   -2.673079    0.066524
N       0.003906   -2.055246    1.250839
C       0.005888   -0.720998    1.242349
C       0.025094   -0.036289    2.592156
O       1.248713    0.653179    2.837824
H       0.788420    1.906210    0.699399
H       0.225527    1.864078   -1.000798
H      -0.936087    1.914860    0.337446
H       0.026763   -2.465758   -2.083588
H       0.008320   -3.759762    0.072978
H      -0.754940    0.729716    2.651101
H      -0.176637   -0.794085    3.358988
H       1.953552   -0.003331    2.831659
