20

C      -0.112625    1.510993   -0.095907
C      -0.021090   -0.005114   -0.007267
C      -1.420561   -0.618222    0.220640
C      -1.355888   -0.953749    1.769882
O       0.022043   -0.854209    2.235674
C       0.744529   -0.762163    1.052374
C       2.048044   -0.185543    0.462599
N       1.228917   -0.624288   -0.792563
C       0.961501   -1.896897    0.012176
H       0.847568    2.010447   -0.225535
H      -0.736588    1.782807   -0.954105
H      -0.590984    1.922175    0.800670
H      -2.218211    0.097453    0.011984
H      -1.634341   -1.514665   -0.360371
H      -1.950539   -0.253501    2.363326
H      -1.720242   -1.967687    1.965560
H       2.242458    0.881689    0.538905
H       2.965790   -0.765783    0.574204
H       1.847601   -2.524242    0.127799
H       0.117274   -2.483584   -0.345642
