18

C       0.081323    1.591922    0.177639
C       0.108815    0.084925    0.017778
C       0.414911   -0.618734   -1.267615
C       0.721351    0.130320   -2.559237
C       1.533716   -0.662819   -3.483243
N       2.168774   -1.299650   -4.208283
C       1.408923   -0.721042   -0.109776
C       2.733440   -0.055861   -0.135443
O       3.706759   -0.496234    0.425077
H       0.809733    2.110363   -0.449450
H      -0.910113    1.981192   -0.076727
H       0.291087    1.869787    1.215142
H      -0.632967   -0.415962    0.634207
H      -0.131962   -1.539305   -1.447786
H      -0.219568    0.384444   -3.062027
H       1.235843    1.077203   -2.376561
H       1.442808   -1.671963    0.410986
H       2.795508    0.898834   -0.702609
