17

C      -0.127703   -1.246279   -0.100262
C      -0.064983   -0.046935   -0.047995
C       0.012320    1.407968    0.024850
C      -0.593825    2.012603    1.329686
C       0.255948    3.267028    1.625550
C       1.562375    2.979056    0.898097
C       1.425198    1.963424    0.034308
C       2.728936    3.751599    1.111671
C       3.697027    4.435101    1.330720
H      -0.182653   -2.305493   -0.148412
H      -0.516930    1.816354   -0.851343
H      -1.660159    2.224911    1.228565
H      -0.473201    1.284136    2.135609
H      -0.201052    4.180948    1.223966
H       0.404993    3.435476    2.696124
H       2.199774    1.588853   -0.622485
H       4.558691    5.028851    1.510128
