23

C      -0.713758    1.166155    0.023620
C       0.148086   -0.082450   -0.076868
C       1.558408   -0.010862   -0.723158
C       2.031590   -1.088884    0.286986
C       0.810580   -0.740790    1.179524
C       1.103566    0.165644    2.388579
C      -0.007511   -0.210591    3.378784
C      -0.154056   -1.706329    3.093360
O       0.085253   -1.854574    1.697436
H      -0.172553    2.004052    0.476868
H      -1.039973    1.492737   -0.970222
H      -1.615042    0.984082    0.619976
H      -0.422280   -0.882449   -0.562358
H       1.637459   -0.242751   -1.787315
H       2.037488    0.956995   -0.542288
H       1.923812   -2.099406   -0.115393
H       3.026597   -0.984321    0.728510
H       2.082811   -0.091282    2.809522
H       1.123784    1.227712    2.136602
H       0.245245    0.004465    4.420058
H      -0.936562    0.316226    3.136870
H       0.581888   -2.288255    3.670826
H      -1.149319   -2.103319    3.318286
