19

C      -0.477102    1.395772    0.062488
C      -0.088532   -0.049958   -0.020097
C       0.624254   -0.651249   -1.033386
N       0.781002   -1.978487   -0.721356
C       0.173835   -2.255404    0.483053
C      -0.368343   -1.069751    0.937412
C       0.177746   -3.623338    1.032249
C      -0.741889   -4.005225    2.129473
N      -0.964589   -4.550956    0.781690
H      -0.051976    1.881929    0.948564
H      -0.128374    1.948790   -0.814744
H      -1.564650    1.522388    0.120690
H       1.034734   -0.238915   -1.941894
H       1.235768   -2.662478   -1.301037
H      -0.890576   -0.937016    1.873406
H       1.134333   -4.141153    0.978878
H      -0.418569   -4.729282    2.871723
H      -1.427189   -3.250617    2.504117
H      -1.708677   -4.017673    0.335356
