22

C      -0.183426   -0.734024    4.657000
C      -0.156502   -1.586583    3.477241
C      -0.126491   -2.288345    2.496659
C      -0.054567   -3.152947    1.351113
N      -1.202483   -3.982576    0.920773
C      -2.432526   -3.952684    1.699519
C      -0.816779   -2.850504    0.079628
C      -1.672595   -1.601035   -0.004892
C      -0.185977   -3.259000   -1.238560
H      -0.096040   -1.320778    5.578376
H       0.642337   -0.013779    4.643780
H      -1.117119   -0.163674    4.714999
H       0.899789   -3.668069    1.247284
H      -2.636296   -3.005430    2.215426
H      -3.272853   -4.178386    1.035237
H      -2.381470   -4.741006    2.457272
H      -1.999326   -1.246967    0.973227
H      -1.103199   -0.792519   -0.475174
H      -2.557223   -1.783964   -0.625847
H      -0.958881   -3.432487   -1.996528
H       0.482384   -2.476091   -1.613832
H       0.383509   -4.183968   -1.122184
