20

C       0.126077    1.615161   -0.139072
C       0.057480    0.091009   -0.027156
C       0.680039   -0.624110   -1.225145
N       2.145680   -0.592480   -1.203405
C       1.422167   -1.831761   -0.773040
C       1.305990   -1.895897    0.722480
O       1.551643   -2.854841    1.410454
C       0.745693   -0.549661    1.222850
C       1.859560    0.265365    1.904472
H       1.160304    1.956143   -0.231712
H      -0.421904    1.958882   -1.023235
H      -0.319349    2.102014    0.734128
H      -0.999391   -0.205353   -0.003351
H       0.166412   -0.611602   -2.182099
H       2.506214   -0.759769   -2.140340
H       1.524327   -2.742088   -1.351462
H      -0.007240   -0.785759    1.981597
H       2.656657    0.513234    1.200756
H       1.463937    1.193611    2.326663
H       2.288919   -0.321292    2.721777
