17

O       0.202967    1.350339   -0.298294
C       0.082857   -0.001972   -0.016683
C      -1.340892   -0.707885   -0.083674
O      -2.060204   -0.474013   -1.325784
C      -1.609468   -1.752081   -1.918019
C      -0.650952   -1.556566   -3.111982
C       0.486226   -0.811925   -2.415486
C       0.442280   -1.028808   -1.094336
C      -0.706430   -1.963276   -0.699812
H      -0.277730    1.497947   -1.123832
H       0.510247   -0.176518    0.976965
H      -1.990908   -0.650091    0.793657
H      -2.466603   -2.409794   -2.094503
H      -0.391724   -2.524707   -3.563375
H      -1.094180   -0.941007   -3.902464
H       0.995927    0.024855   -2.881275
H      -0.531795   -2.914364   -0.203300
