13

N       0.075907   -1.183839    0.014498
C      -0.002632   -0.030893    0.003479
C      -0.019764    1.442739    0.021158
C      -0.210649    2.012250    1.475443
C       1.325582    2.193587    1.489619
N       1.323285    2.062560    0.011000
C      -0.931448    1.948584   -1.014151
N      -1.656967    2.373625   -1.805451
H      -0.759394    2.952902    1.452348
H      -0.655907    1.328549    2.195071
H       1.710174    3.152597    1.843662
H       1.838320    1.379896    2.015823
H       2.056377    1.504788   -0.413717
