18

C       0.217846    1.260008   -0.455732
C      -0.108406    0.119091    0.483397
O       0.545368   -0.114140    1.474189
C      -1.354779   -0.716190    0.204977
C      -2.181595   -0.989175    1.447305
N      -1.996377   -0.517494   -1.087673
C      -1.324701   -1.808502   -0.846391
C      -0.131061   -2.120598   -1.682692
O       0.236424   -3.245795   -1.906802
H       1.171398    1.702443   -0.166381
H       0.234205    0.943984   -1.500447
H      -0.575970    2.013592   -0.384689
H      -2.603402   -0.057146    1.839485
H      -3.005320   -1.674704    1.227924
H      -1.551279   -1.424063    2.225233
H      -3.005208   -0.629519   -1.021455
H      -1.924902   -2.685756   -0.614930
H       0.398189   -1.237309   -2.098752
