17

C       0.169883    1.387995   -0.412603
C      -0.025024    0.013022    0.251833
C      -1.437386   -0.474824    0.188595
N      -2.349302   -0.317093    1.119271
C      -3.511888   -0.882580    0.616026
C      -3.280253   -1.387041   -0.644085
N      -1.959512   -1.120478   -0.903362
C      -4.728763   -0.913442    1.338831
C      -5.769031   -0.944455    1.944148
H       1.210216    1.715142   -0.324978
H      -0.085553    1.358106   -1.477020
H      -0.468517    2.136489    0.064445
H       0.643316   -0.722386   -0.213289
H       0.248645    0.071445    1.308385
H      -3.918478   -1.899085   -1.343819
H      -1.463106   -1.366149   -1.743778
H      -6.682459   -0.968394    2.484190
