16

C       0.051353    1.378290    0.008844
O       0.010912   -0.029753    0.001820
C      -1.299832   -0.541804    0.011452
C      -1.190072   -2.072469    0.002567
C      -2.488098   -2.725108    0.011200
C      -3.577425   -3.252327    0.018944
C      -4.801929   -3.845909    0.027350
C      -5.889005   -4.371801    0.034502
H       1.102998    1.673938    0.000641
H      -0.445866    1.805268   -0.876209
H      -0.429319    1.795890    0.907409
H      -1.849796   -0.208183    0.906126
H      -1.866397   -0.199087   -0.869317
H      -0.618334   -2.375530   -0.883215
H      -0.602045   -2.384539    0.874453
H      -6.844095   -4.835019    0.040978
