17

O       0.288805    0.523253    0.965653
C      -0.108712    0.269739   -0.371292
C      -1.482939   -0.409305   -0.468531
O      -1.868439   -0.570650   -1.820187
C      -1.494731   -1.735699    0.319215
C      -2.801414   -2.365677    0.386040
C      -3.887290   -2.891982    0.444298
C      -5.198134   -3.482449    0.498865
O      -5.417259   -4.656493    0.694485
H      -0.236582    1.256965    1.300708
H      -0.126142    1.181913   -0.982824
H       0.656734   -0.394581   -0.793386
H      -2.239577    0.257502   -0.036395
H      -1.268164   -1.200500   -2.235571
H      -0.771266   -2.429599   -0.134120
H      -1.122831   -1.534175    1.331247
H      -6.025594   -2.760243    0.342352
