21

C      -0.086276    1.513093    0.011578
C      -0.030445   -0.004531   -0.010340
O      -1.362054   -0.499495    0.030185
C      -1.455054   -1.875136    0.015340
C      -1.071326   -2.720898   -1.240634
C      -2.145572   -3.691688   -0.753651
C      -2.089514   -3.712220    0.783854
C      -0.981866   -2.753579    1.217171
C      -2.843686   -2.626800    0.055937
H       0.923911    1.932326   -0.018635
H      -0.644912    1.888631   -0.850416
H      -0.582294    1.865371    0.920427
H       0.477255   -0.360496   -0.920154
H       0.539810   -0.383812    0.851732
H      -1.382272   -2.212973   -2.157952
H      -0.037451   -3.073566   -1.333672
H      -2.602107   -4.504545   -1.303033
H      -2.505594   -4.539899    1.343144
H       0.055722   -3.107500    1.225422
H      -1.224899   -2.270602    2.167871
H      -3.866782   -2.284967    0.097817
