21

C       0.113608    1.372169   -0.018164
O      -0.039057   -0.031053   -0.035669
C      -1.365491   -0.568881   -0.000691
C      -2.104313   -0.177790    1.286522
C      -2.176543   -0.169668   -1.241864
C      -1.104211   -2.103048   -0.028960
N      -0.362052   -2.467162   -1.234517
C      -0.424911   -2.547430    1.210347
N       0.121292   -2.952055    2.145824
H       1.189514    1.561892   -0.030987
H      -0.334427    1.855660   -0.896464
H      -0.306471    1.828222    0.887697
H      -2.370130    0.882457    1.279147
H      -3.036196   -0.744665    1.377116
H      -1.490067   -0.378590    2.167452
H      -1.646296   -0.448020   -2.153136
H      -3.146230   -0.676962   -1.238041
H      -2.372413    0.905816   -1.248604
H      -2.078832   -2.603604   -0.058213
H       0.517687   -1.958985   -1.227415
H      -0.142863   -3.458026   -1.224183
