17

C       0.020257    1.595737   -0.045293
C       1.559893    1.466812    0.100575
C       1.341884   -0.007776    0.577502
C      -0.075190    0.045955   -0.054214
C       2.312604   -1.038632    0.128140
N       2.094830   -1.836759   -0.885541
O       3.268548   -2.602043   -0.965197
C       4.054861   -2.167872    0.018942
N       3.547397   -1.217424    0.733169
H      -0.436391    2.026948    0.850133
H      -0.358392    2.129228   -0.919255
H       2.063425    1.493422   -0.869526
H       2.076527    2.140359    0.786739
H       1.292416   -0.036221    1.669841
H      -0.886115   -0.423991    0.505888
H      -0.067631   -0.359070   -1.068351
H       5.018946   -2.644234    0.123982
