23

C      -0.149375    1.371760    0.125530
O      -0.001783   -0.025796   -0.045411
C       0.641897   -0.486152   -1.220834
C      -0.030950    0.023054   -2.508688
C       2.115810   -0.058583   -1.240872
O       2.720499    0.362014   -0.289908
C       0.596903   -2.044433   -1.079986
C      -0.845959   -2.568726   -1.074110
C       1.448581   -2.805371   -2.107647
H       0.810256    1.898325    0.085739
H      -0.836007    1.811615   -0.610880
H      -0.580175    1.509349    1.120193
H       0.096662    1.102493   -2.631881
H       0.399706   -0.457715   -3.391151
H      -1.101068   -0.192934   -2.485912
H       2.611132   -0.164526   -2.233887
H       1.021270   -2.225760   -0.085125
H      -0.859088   -3.617601   -0.760658
H      -1.466200   -1.995015   -0.383329
H      -1.297750   -2.522674   -2.071054
H       2.510879   -2.550696   -2.050925
H       1.363844   -3.881176   -1.925189
H       1.111527   -2.626215   -3.134608
