24

C      -0.433795    1.504622   -0.124444
C      -0.157535    0.000650   -0.210244
C       0.786218   -0.462001   -1.315695
C       1.090421    0.400113   -2.484702
N       2.123287    0.140675   -1.459384
C       0.820772   -1.971961   -1.537669
C       1.346401   -2.738120   -0.319372
O      -0.500805   -2.354519   -1.901925
C      -0.612158   -3.634846   -2.475089
H       0.486122    2.095972   -0.043837
H      -0.989572    1.865896   -0.994513
H      -1.032784    1.725913    0.763762
H       0.249701   -0.339191    0.751116
H      -1.103269   -0.534141   -0.344829
H       1.284460   -0.052574   -3.453557
H       0.651272    1.391170   -2.534116
H       2.207267    0.951088   -0.849974
H       1.500565   -2.160522   -2.383811
H       1.485677   -3.799232   -0.544029
H       2.316858   -2.328272   -0.025498
H       0.655433   -2.658127    0.524707
H       0.062146   -3.753443   -3.338296
H      -0.397891   -4.442273   -1.760017
H      -1.643949   -3.744758   -2.819363
