22

C       0.123440    1.509495    0.013069
C      -0.031265   -0.019919   -0.008014
C      -1.522656   -0.401640    0.059915
C       0.599330   -0.578705   -1.314519
C       0.851948   -2.064022   -1.285736
C       1.163259   -2.708213   -0.160302
C       1.246189   -1.983972    1.131105
N       2.117067   -0.769983    1.163065
C       0.659128   -0.617665    1.212251
H       1.181420    1.788383    0.034044
H      -0.333276    1.962763   -0.873913
H      -0.361042    1.944924    0.894643
H      -2.078928    0.059030   -0.763485
H      -1.656010   -1.485653   -0.003334
H      -1.975531   -0.060139    0.997611
H      -0.050617   -0.319678   -2.158694
H       1.551152   -0.062877   -1.491405
H       0.804695   -2.603828   -2.227671
H       1.358811   -3.776430   -0.159818
H       1.231641   -2.592835    2.031020
H       2.510053   -0.660464    2.094784
H       0.215081   -0.326340    2.164103
