19

C       0.246496    1.537020    0.077488
N       0.017090    0.111332    0.106672
C      -1.319632   -0.384786    0.487065
C      -0.640880   -1.508530    1.288530
C       0.655049   -0.688530    1.170105
C      -1.183601   -2.157749    2.568859
C      -1.103942   -3.439574    1.768508
N      -1.366041   -4.644255    1.990522
O      -0.616209   -2.817603    0.635072
H       1.299712    1.739271   -0.143115
H      -0.354637    1.993767   -0.715518
H      -0.006614    2.038891    1.032159
H      -1.878574    0.300991    1.146600
H      -1.960662   -0.690938   -0.345951
H       1.557047   -1.232029    0.870817
H       0.859324   -0.120155    2.093638
H      -0.525110   -2.116962    3.438820
H      -2.192442   -1.860494    2.862092
H      -1.171740   -5.222919    1.171457
