19

C      -0.047736    1.539648   -0.024578
C       0.061068    0.021448    0.020742
N       0.764012   -0.487967   -1.164034
C       0.838888   -1.944961   -1.217351
C       1.704691   -2.440858   -0.059030
C       1.131106   -1.955566    1.284095
C       0.808999   -0.468710    1.271294
O       1.081624    0.266071    2.190802
H       0.945411    1.988446   -0.105024
H      -0.645846    1.856230   -0.885718
H      -0.519769    1.916273    0.884532
H      -0.960007   -0.412677    0.102500
H       0.312769   -0.125820   -1.997262
H      -0.157644   -2.426962   -1.160457
H       1.283765   -2.233892   -2.174947
H       1.766995   -3.534013   -0.067910
H       2.719780   -2.049844   -0.187427
H       0.182516   -2.479219    1.475951
H       1.795649   -2.161882    2.126401
