25

C      -0.273277    1.370696   -0.133716
O      -0.162275   -0.032885   -0.107602
C       0.788635   -0.542086   -1.028092
C       0.713382   -2.078441   -0.959418
C       1.209860   -2.566944    0.411601
O      -0.657911   -2.446089   -1.129206
C       1.460236   -2.713794   -2.159978
C       2.940321   -2.316442   -2.260085
C       1.306127   -4.241908   -2.184618
H       0.677670    1.856672    0.132941
H      -0.580011    1.735716   -1.125994
H      -1.032493    1.653638    0.599436
H       0.543993   -0.202022   -2.047256
H       1.792986   -0.172802   -0.773194
H       0.675606   -2.036239    1.204166
H       1.020256   -3.636036    0.526142
H       2.280497   -2.383857    0.548805
H      -1.163168   -1.827234   -0.587162
H       0.943912   -2.322731   -3.046777
H       3.083055   -1.234953   -2.345844
H       3.513052   -2.663836   -1.393353
H       3.388760   -2.774018   -3.147923
H       0.259151   -4.528603   -2.069339
H       1.672260   -4.642418   -3.135610
H       1.884600   -4.719206   -1.386245
