14

O      -0.007586    1.399842   -0.033662
C      -0.012572   -0.010891   -0.096580
C      -1.419340   -0.503539    0.019291
C      -2.479835    0.306381    0.159716
N      -3.781872   -0.196658    0.264840
N      -4.057944   -1.385325    0.238524
O      -2.939209   -2.356902    0.085136
C      -1.642161   -1.948077   -0.023758
N      -0.674467   -2.762618   -0.155293
H       0.901676    1.701160   -0.109327
H       0.408600   -0.394339   -1.038685
H       0.579971   -0.472850    0.708074
H      -2.401556    1.382374    0.200383
H      -1.008015   -3.727431   -0.165918
