17

C      -0.157254   -1.148591    0.135900
C      -0.046457    0.045677    0.074382
C       0.050948    1.505151   -0.032163
C       1.443367    1.964682   -0.002075
C       2.573979    2.369704   -0.004247
C      -0.666117    2.011092   -1.305942
C      -2.204239    1.894935   -1.275591
O      -2.350528    3.325170   -1.152747
C      -0.934642    3.529943   -1.340888
H      -0.243077   -2.205203    0.201161
H      -0.471886    1.945427    0.830488
H       3.577830    2.716474    0.005061
H      -0.174846    1.594494   -2.185670
H      -2.655288    1.513484   -2.200064
H      -2.632544    1.355991   -0.422072
H      -0.486429    4.119803   -0.532450
H      -0.713238    4.014489   -2.299946
