18

C      -0.016717    1.507355   -0.292179
C       0.089056    0.040664   -0.010351
C       0.862557   -0.918171   -0.864417
C       1.017660   -2.243531   -0.140844
C      -0.389647   -1.927083    0.400644
C      -0.261482   -0.683621    1.297047
C       0.672633   -0.632095    2.476580
O       1.271949   -1.574905    2.930845
N      -0.644727   -0.987465   -0.826815
H       0.796219    2.064369    0.186741
H       0.036546    1.691820   -1.369420
H      -0.968527    1.909189    0.070832
H       1.380955   -0.577888   -1.754524
H       0.976701   -3.071105   -0.853700
H       1.830395   -2.395340    0.570932
H      -1.106348   -2.711684    0.629962
H      -1.250498   -0.329812    1.620156
H       0.783840    0.382904    2.927014
