17

O       0.385779    1.032373    0.625756
C       0.047482   -0.030821   -0.243100
C      -1.398997   -0.489095   -0.088038
C      -1.685809   -1.884588    0.333284
N      -1.891906   -0.762417    1.263557
C      -2.461343    0.237518   -0.935622
O      -3.759495   -0.051484   -0.499970
C      -2.194061    1.700708   -0.902882
N      -1.937319    2.827421   -0.856255
H      -0.064709    1.831104    0.324325
H       0.244840    0.220377   -1.296626
H       0.716999   -0.855114    0.022023
H      -2.599698   -2.372441    0.009557
H      -0.837246   -2.544422    0.490646
H      -1.141224   -0.658617    1.940878
H      -2.378209   -0.082928   -1.981289
H      -3.685221   -0.126133    0.468761
