22

C       0.035162    1.563001    0.081900
C      -0.135745    0.047957   -0.072781
C       0.704426   -0.533332   -1.207373
C       2.267387   -0.587537   -1.071101
C       2.220859   -2.090140   -1.367647
C       1.376845   -2.781964   -0.332416
C       0.690458   -2.055333   -1.459704
C      -0.242800   -2.739794   -2.417978
H       1.078138    1.825235    0.290673
H      -0.259619    2.090031   -0.832703
H      -0.575785    1.952790    0.902135
H       0.123563   -0.446253    0.871773
H      -1.193495   -0.183979   -0.256635
H       0.445841   -0.015073   -2.139208
H       2.780439    0.002099   -1.833913
H       2.677207   -0.316010   -0.090927
H       2.926448   -2.633664   -1.985650
H       1.343438   -3.864988   -0.406370
H       1.349952   -2.412897    0.690602
H      -1.268011   -2.769607   -2.028029
H      -0.273046   -2.222484   -3.384406
H       0.065730   -3.774289   -2.603099
