17

O      -0.046105   -0.062217    0.010737
C      -0.027059    1.151912   -0.000230
N      -1.161160    1.915962   -0.121938
C      -1.301678    3.369029   -0.005678
C      -0.123424    4.000946    0.699626
C       1.026773    3.353059    0.666688
C       2.343171    3.208556    1.397314
N       2.254114    1.737580    1.113381
C       1.236146    1.996176    0.058388
H      -2.008077    1.376027   -0.223303
H      -1.457480    3.825109   -0.996922
H      -2.213825    3.573641    0.568181
H      -0.288002    4.921767    1.248829
H       3.180182    3.714839    0.893867
H       2.362510    3.465869    2.461288
H       3.112170    1.319224    0.771247
H       1.657068    2.039899   -0.959767
