16

C      -1.320306   -0.018091    0.062582
O       0.101175    0.031215   -0.027798
C       0.647650   -0.690374   -1.076443
C       1.877910   -1.527280   -0.750982
C       0.591813   -2.211942   -1.077099
C       0.683743   -0.016866   -2.405516
O       1.078093   -0.532135   -3.425534
C       0.226664    1.391050   -2.420665
N      -0.134514    2.487094   -2.491654
H      -1.800717    0.411043   -0.825029
H      -1.675948   -1.046849    0.200617
H      -1.592648    0.579161    0.934123
H       2.669518   -1.534702   -1.490670
H       2.186698   -1.480056    0.286304
H       0.033786   -2.659997   -0.263611
H       0.494420   -2.690594   -2.044493
