22

O      -5.216494   -1.053371   -2.026521
C      -4.409241   -1.990175   -1.329462
C      -2.956972   -1.543697   -1.464636
C      -2.015825   -2.445508   -0.693777
C      -1.393233   -3.639769   -1.336706
N      -0.575018   -2.495415   -0.953133
C       0.016804   -1.630320   -1.945662
C       1.251962   -2.069882   -2.673385
C      -0.027201   -1.826373   -3.446993
H      -6.134580   -1.326552   -1.942677
H      -4.686230   -2.039427   -0.263363
H      -4.525006   -3.005362   -1.741893
H      -2.691840   -1.518168   -2.524965
H      -2.880516   -0.514357   -1.092105
H      -2.244702   -2.511747    0.370547
H      -1.215388   -4.554678   -0.777000
H      -1.618519   -3.793312   -2.390460
H       0.008237   -0.597812   -1.607522
H       2.074922   -1.371632   -2.777785
H       1.555623   -3.103033   -2.540482
H      -0.529807   -2.696171   -3.853939
H      -0.102109   -0.943520   -4.073335
