18

C       0.109983    1.518071   -0.272685
N       1.463380    1.561339    0.380746
C       1.434043    0.090149    0.585561
C       0.777991   -0.341053    1.919981
O      -0.541214   -0.389665    1.290139
C       0.023022   -0.000935    0.023316
C       0.092149   -1.016738   -1.107459
O       1.479551   -1.011443   -1.477882
C       2.259659   -0.846345   -0.281902
H      -0.634807    2.136849    0.235388
H       0.112500    1.753427   -1.343098
H       2.199608    1.858571   -0.250192
H       1.067894   -1.324316    2.309170
H       0.824362    0.412017    2.711412
H      -0.225546   -2.001848   -0.734852
H      -0.478253   -0.765964   -2.005268
H       3.236423   -0.457095   -0.583523
H       2.409159   -1.813833    0.221691
