16

O      -0.005878    1.466394    0.366088
C       0.073347    0.096093    0.012902
C      -1.277588   -0.543167   -0.114723
C      -2.099931   -1.056098    1.053362
C      -1.625749   -1.994256   -0.042613
O      -2.494930   -2.261805   -1.115520
C      -2.961134   -1.007301   -1.575907
O      -1.998031   -0.030366   -1.220734
H      -0.546852    1.895768   -0.305689
H       0.621891   -0.043459   -0.931499
H       0.639168   -0.397790    0.808717
H      -1.586608   -1.127881    2.006591
H      -3.151702   -0.803705    1.126681
H      -0.932507   -2.805298    0.141317
H      -3.067171   -1.036417   -2.664837
H      -3.931529   -0.767796   -1.111964
