18

C      -0.035331    1.543520    0.021555
C      -0.011185    0.006255   -0.030900
C      -1.443900   -0.553696   -0.010823
C       0.827312   -0.538808   -1.212323
C       1.981762   -1.325161   -0.597791
O       2.867753   -1.912832   -1.162587
N       1.829627   -1.244102    0.782740
C       0.732171   -0.512402    1.214408
O       0.431167   -0.327687    2.367199
H       0.976700    1.960605   -0.007074
H      -0.591270    1.943075   -0.832529
H      -0.515942    1.883911    0.942313
H      -2.011827   -0.172054   -0.865212
H      -1.446589   -1.647444   -0.062757
H      -1.953978   -0.257114    0.909236
H       0.260732   -1.205847   -1.868216
H       1.241242    0.251761   -1.844647
H       2.472858   -1.686807    1.424469
