20

O       0.250011    0.007317    0.378124
C       0.057472    1.174717    0.160639
C      -1.291946    1.834176   -0.133273
C      -0.948653    3.273705   -0.551518
C       0.361378    3.580548    0.205068
C       1.150632    2.266754    0.131744
N       2.118065    2.093320    1.194819
C       3.143493    1.076471    0.982323
C       3.489553    2.521778    0.917617
H      -1.864731    1.256499   -0.862738
H      -1.864252    1.820146    0.803729
H      -0.776387    3.320582   -1.633108
H      -1.742484    3.987626   -0.320642
H       0.906476    4.431544   -0.210388
H       0.154144    3.798871    1.258931
H       1.613923    2.182728   -0.874574
H       3.400176    0.483252    1.854299
H       3.122057    0.520906    0.048284
H       3.704393    2.942229   -0.063820
H       4.003922    3.007514    1.741497
