17

C       0.089690    1.420452    0.053128
C      -0.006032   -0.063513    0.008531
C      -0.027417   -0.937141   -1.011884
C      -0.013257   -2.305139   -0.303046
N      -0.952024   -2.104473    0.862526
C       0.012272   -1.009089    1.238214
C       1.078361   -1.995211    0.743290
N       2.234299   -2.317832    1.112716
O       2.782551   -3.317835    0.274640
H       1.020229    1.736898    0.541649
H       0.072261    1.853413   -0.950797
H      -0.731877    1.860536    0.632020
H       0.027824   -0.757755   -2.076424
H      -0.071290   -3.229321   -0.871824
H      -1.840102   -1.709002    0.542017
H      -0.021997   -0.599042    2.246092
H       3.636201   -3.476389    0.691222
