15

N      -0.220405    1.191859   -0.026111
C      -0.276734   -0.047186   -0.241635
O      -1.007831   -0.834610    0.588018
C      -1.011037   -2.204429    0.291594
C      -2.137233   -2.983580    0.843563
C      -2.054303   -2.770915   -0.671215
C      -3.051621   -1.872358   -1.302974
O      -3.480396   -2.027635   -2.419988
H       0.363254    1.643338   -0.727223
H       0.211647   -0.602776   -1.052415
H      -0.022634   -2.656365    0.254826
H      -1.957114   -3.980561    1.226146
H      -2.901570   -2.417563    1.365705
H      -1.748499   -3.606535   -1.291042
H      -3.391888   -1.030768   -0.661934
