22

C       0.195495    1.341891    0.374195
C       0.008294   -0.109767   -0.076444
C       0.570699   -0.379236   -1.466724
C       2.127127   -0.414554   -1.604117
N       2.011734   -1.787796   -2.084956
C       0.557355   -1.862717   -1.949884
C       2.998872   -2.669998   -2.387692
C       2.520661   -4.057211   -2.789387
O       4.175246   -2.350673   -2.338649
H       1.255166    1.617969    0.398847
H      -0.311663    2.035302   -0.305688
H      -0.211322    1.500693    1.377236
H       0.489469   -0.786462    0.642469
H      -1.059855   -0.363590   -0.068038
H       0.108767    0.292995   -2.195087
H       2.568946    0.274202   -2.331118
H       2.680937   -0.327327   -0.661544
H       0.211076   -2.582670   -1.196343
H       0.022588   -2.054730   -2.887694
H       1.838479   -4.009893   -3.644734
H       3.389402   -4.660356   -3.051427
H       1.981495   -4.540198   -1.967073
