9

C       0.014749    1.478883   -0.035093
N       0.187081    0.038313   -0.029069
C       0.457037   -0.668589    1.100690
O       0.584580   -0.198762    2.211197
H       0.760253    1.967361   -0.671981
H      -0.984624    1.759845   -0.384851
H       0.142698    1.823877    0.991494
H       0.103863   -0.469377   -0.894614
H       0.550476   -1.752535    0.888682
