21

C       0.050119    1.653088    0.053299
C      -0.007787    0.124214    0.030192
O       0.673433   -0.297894    1.212061
C      -1.453746   -0.413029    0.023580
C      -2.291792   -0.001182    1.228697
O      -3.508288   -0.735249    1.162289
C       0.717462   -0.432285   -1.230142
C       2.128707   -0.082325   -1.316945
C       3.293002    0.204645   -1.398318
H       1.086500    1.987308   -0.030538
H      -0.524670    2.076332   -0.775832
H      -0.356331    2.036282    0.991908
H       0.734998   -1.259485    1.197836
H      -1.964700   -0.101548   -0.895122
H      -1.424018   -1.510947    0.003871
H      -1.734146   -0.222146    2.149545
H      -2.485873    1.081638    1.209273
H      -4.043610   -0.493054    1.923399
H       0.612851   -1.526504   -1.234483
H       0.192476   -0.078406   -2.126464
H       4.322117    0.457023   -1.465128
