20

C       0.219784    1.081211   -1.153037
C      -0.238802    0.653574    0.241078
O      -0.393256    1.772028    1.116236
C      -1.528204   -0.144685    0.171928
C      -1.537412   -1.649655    0.068249
C      -0.303311   -2.387350    0.068449
C       0.708439   -3.039506    0.061725
N      -2.031192   -0.950053    1.269212
C      -1.282329   -1.032799    2.520527
H       1.110763    1.709958   -1.077573
H       0.455111    0.208268   -1.769554
H      -0.563061    1.655594   -1.664205
H       0.546556    0.050121    0.702082
H      -1.079918    2.340923    0.749770
H      -2.319757    0.376952   -0.373136
H      -2.327624   -2.115104   -0.517923
H       1.602278   -3.613001    0.053099
H      -0.222597   -1.292124    2.403590
H      -1.349921   -0.066015    3.024355
H      -1.749084   -1.796209    3.149939
