23

C      -0.543791    1.085384    0.211244
O       0.342803    0.026571   -0.078753
C       0.833851   -0.615907    1.057211
C       0.100259   -1.827422    1.624736
C      -1.231340   -2.280601    1.070091
O      -2.324560   -1.820749    1.859540
C       1.417470   -1.986841    0.869483
C       1.428128   -2.595363   -0.522281
C       2.639755   -2.337652    1.699342
H      -0.075654    1.839852    0.860936
H      -0.812644    1.552373   -0.739036
H      -1.463910    0.731991    0.701091
H       1.324064    0.059463    1.761719
H       0.164937   -1.959085    2.703051
H      -1.340138   -1.967118    0.023549
H      -1.303587   -3.373402    1.094866
H      -2.226969   -0.868849    1.962941
H       0.605582   -2.234738   -1.140116
H       2.361111   -2.338669   -1.036815
H       1.371654   -3.688512   -0.468401
H       2.703342   -3.419839    1.863362
H       3.559994   -2.022491    1.193465
H       2.614409   -1.855258    2.681467
