19

C      -0.097713    1.590433    0.042068
C       0.077873    0.091525    0.116739
O      -1.089522   -0.618043   -0.267885
C       1.342519   -0.684711   -0.235211
C       2.598968   -0.058262    0.341764
O       2.984049    1.167200   -0.254454
C       1.960679   -0.037602    1.779022
C       0.726412   -0.705664    1.202554
O       0.057831   -1.680575    1.899246
H       0.811705    2.114734    0.335029
H      -0.324397    1.891039   -0.988450
H      -0.930408    1.908401    0.678099
H      -1.173578   -0.573235   -1.226057
H       1.321094   -1.418242   -1.034001
H       3.429116   -0.775764    0.309093
H       3.791515    1.467734    0.175248
H       2.490412   -0.688947    2.477635
H       1.818049    0.945433    2.238032
H      -0.758647   -1.846064    1.406611
