19

O      -0.200395    1.336295    0.261801
C       0.012297   -0.041024    0.066982
C       1.114947   -0.503587   -0.847456
C       1.230199   -0.698818    0.658606
C      -1.310369   -0.760242    0.074967
C      -2.251974   -0.505345    1.298199
C      -3.392918   -0.271344    0.297708
O      -4.585212   -0.234324    0.393746
C      -2.419311   -0.221885   -0.888520
H       0.646619    1.791132    0.255919
H       0.950556   -1.374366   -1.473442
H       1.741557    0.256056   -1.305021
H       1.932848   -0.067982    1.194697
H       1.144482   -1.702867    1.060697
H      -1.138816   -1.828346   -0.076617
H      -2.394911   -1.307631    2.025819
H      -1.992206    0.418270    1.824536
H      -2.223370    0.809851   -1.196261
H      -2.685070   -0.816117   -1.765893
