12

O       0.129742    1.306398   -0.017226
C       0.084739   -0.037335   -0.026599
C      -0.044284   -0.717365   -1.242336
N      -0.090208   -2.046443   -1.268091
C      -0.010546   -2.703875   -0.114554
C       0.118219   -2.005153    1.090569
O       0.197498   -2.684183    2.248310
N       0.165892   -0.676736    1.136887
H       0.219776    1.578823    0.906067
H      -0.108533   -0.173457   -2.178097
H      -0.047195   -3.787447   -0.126351
H       0.280988   -2.028759    2.954173
