18

C      -0.023621    1.458175   -0.009347
C       0.059000   -0.039189    0.001886
C       0.643597   -0.870415   -1.076812
C       0.759387   -2.192581   -0.307430
O       1.239519   -1.840147    0.984939
C       0.216821   -0.881103    1.306239
C      -1.048441   -1.762078    1.268593
C      -0.820097   -2.135165   -0.190973
N      -0.848132   -0.806580   -0.923507
H       0.903547    1.905264    0.365103
H      -0.198163    1.823358   -1.024867
H      -0.849470    1.812008    0.617699
H       1.173587   -0.515110   -1.953806
H       1.282333   -3.056674   -0.708950
H       0.468996   -0.342701    2.217375
H      -0.990477   -2.594188    1.973350
H      -1.980450   -1.205598    1.398979
H      -1.425586   -2.906154   -0.661342
