18

C       0.065165    1.541502    0.129121
C      -0.014679    0.044222   -0.035506
C       0.286709   -0.646413   -1.387454
N      -0.786099   -1.665549   -1.114623
C      -0.408056   -2.595633   -0.017423
C       0.204410   -1.867017    1.165880
O       0.770826   -0.597071    0.972873
C      -1.283901   -1.865077    1.006707
C      -1.384101   -0.765505   -0.050304
H       1.102396    1.881017    0.043448
H      -0.525953    2.045970   -0.640716
H      -0.309194    1.840526    1.112865
H       0.004576   -0.052945   -2.262958
H       1.299576   -1.038531   -1.510269
H      -0.265738   -3.654319   -0.208437
H       0.694540   -2.439548    1.943526
H      -2.027204   -2.204964    1.713562
H      -2.317121   -0.252808   -0.280317
