21

C      -0.100559    1.499153    0.141319
C       0.040852   -0.021700    0.038134
C      -1.309254   -0.684412   -0.217203
C       1.219634   -0.439296   -0.904188
C       2.145336   -0.572732    0.336790
C       0.880208   -0.622594    1.210404
O       0.931005    0.124193    2.423057
C       0.496057   -0.449428    3.560199
O       0.481288    0.119964    4.609689
H       0.859826    1.991083    0.319204
H      -0.518371    1.898614   -0.789064
H      -0.767651    1.778520    0.962349
H      -1.750299   -0.327084   -1.154447
H      -1.213949   -1.773438   -0.289019
H      -2.019418   -0.459531    0.587275
H       1.036574   -1.400175   -1.392859
H       1.514150    0.287993   -1.663726
H       2.824111   -1.426292    0.387793
H       2.712303    0.340643    0.529759
H       0.570572   -1.652081    1.429480
H       0.163407   -1.495953    3.411343
