16

O       0.135268    0.204217   -1.056563
C       0.064413    1.163540   -0.353664
C      -1.027269    1.825925    0.497477
N      -0.128853    3.001230    0.667467
C       0.223054    3.428193    2.028778
C       1.489976    2.672796    2.389957
O       1.350283    1.254939    2.247198
C       1.987254    1.983957    1.186308
C       1.038187    2.297836    0.046609
H      -1.969643    2.045000   -0.016500
H      -1.230921    1.262589    1.417509
H       0.415559    4.508889    2.059711
H      -0.599656    3.217400    2.720284
H       2.143197    3.007767    3.192531
H       3.033211    1.751855    1.009324
H       1.540692    2.827747   -0.770580
