17

C       0.041130    1.562468   -0.095730
C      -0.014306    0.038188   -0.036206
C      -1.441379   -0.501796    0.208591
C      -2.060926   -0.006139    1.430773
C      -2.575847    0.408409    2.433774
C       0.755905   -0.719521   -1.143251
O       1.687376   -1.255542   -0.152235
C       1.053338   -0.597858    0.874980
O       1.343037   -0.600106    2.026356
H       1.060361    1.914397   -0.279747
H      -0.602132    1.938981   -0.898597
H      -0.305172    1.989218    0.848333
H      -2.061962   -0.225231   -0.654622
H      -1.415869   -1.598623    0.230358
H      -3.023306    0.763818    3.328930
H       0.218150   -1.527481   -1.645489
H       1.280673   -0.097179   -1.871330
