22

C      -0.062132    0.943114   -0.662892
C      -0.130742    0.123625    0.616635
O      -1.388027   -0.580086    0.726129
C      -1.466429   -1.771607    0.106939
O      -0.560430   -2.284978   -0.503737
C      -2.863261   -2.367002    0.226543
C      -3.727721   -1.772530   -0.913005
N      -2.718182   -3.813193    0.245642
C      -3.949272   -4.583748    0.249984
H       0.866715    1.522058   -0.682774
H      -0.077170    0.289723   -1.538373
H      -0.902544    1.640606   -0.724992
H       0.682898   -0.603622    0.662235
H      -0.097422    0.761809    1.502617
H      -3.290030   -2.043610    1.183449
H      -4.756815   -2.134431   -0.848435
H      -3.749998   -0.680585   -0.848614
H      -3.321419   -2.055825   -1.889741
H      -2.095748   -4.092698   -0.504439
H      -4.545092   -4.317750    1.131591
H      -4.594326   -4.456302   -0.635889
H      -3.702356   -5.646554    0.331364
