17

C      -0.178585    1.419313   -0.312396
N      -0.325161   -0.022147   -0.247405
C      -1.315057   -0.641186    0.353548
N      -2.290264   -0.051583    1.033632
H      -3.020124   -0.678781    1.350292
H      -2.427495    0.944371    1.053243
C      -1.355105   -2.136183    0.247752
O      -2.563205   -2.644151    0.726203
C      -1.141156   -2.564750   -1.282438
O      -0.148453   -2.050629   -1.844147
O      -2.008408   -3.353736   -1.666021
H       0.757098    1.652769   -0.820899
H      -0.998920    1.892722   -0.867824
H      -0.135857    1.850702    0.693868
H       0.105734   -0.680919   -0.960213
H      -0.492344   -2.534452    0.800889
H      -2.864430   -3.157569   -0.063326
