21

C      -0.020129    1.528531   -0.123605
C       0.047213    0.019682    0.099328
O       0.709979   -0.295393    1.328075
C      -1.343315   -0.630123    0.024842
N      -1.312609   -2.085646    0.008346
C      -1.239546   -2.807713    1.267478
C      -1.326609   -2.701397   -1.220527
N      -1.388251   -4.093501   -1.197378
O      -1.248051   -2.082689   -2.271959
H       0.976402    1.968226   -0.029620
H      -0.412150    1.763807   -1.117525
H      -0.676547    2.007292    0.615743
H       0.665984   -0.438947   -0.678691
H       0.333788    0.269850    2.012306
H      -1.948021   -0.298826    0.880524
H      -1.838401   -0.303721   -0.891874
H      -2.232853   -3.050275    1.676617
H      -0.675713   -3.734553    1.139272
H      -0.698027   -2.197751    1.990599
H      -1.935728   -4.534145   -0.473986
H      -1.565816   -4.460594   -2.120308
