17

C       0.761818    1.611172   -0.341718
C       0.232795    0.407120    0.443915
C      -0.530734   -0.550650   -0.467170
O      -0.628422   -1.744762   -0.338105
C       1.324209   -0.281431    1.265671
O       2.481444    0.051771    1.171813
C       0.912578   -1.401272    2.211437
C      -0.103387   -1.045736    3.279424
O      -0.834533   -0.087211    3.275229
H       1.545476    1.311352   -1.042028
H      -0.047354    2.088556   -0.902517
H       1.192897    2.349820    0.335996
H      -0.522862    0.736719    1.175904
H      -1.038003   -0.031470   -1.310690
H       0.451965   -2.200455    1.611351
H       1.809378   -1.810195    2.687104
H      -0.141209   -1.781594    4.111817
