15

N      -0.234199    0.249204   -1.111914
C      -0.367747   -0.397683    0.084620
C       0.886506   -1.109213    0.595612
C       1.698364   -1.712545   -0.457070
N       2.329002   -2.152279   -1.319919
N      -1.370274   -0.413866    0.879984
C      -2.559692    0.358733    0.552471
C      -3.171080    0.046257   -0.751830
N      -3.596202   -0.197818   -1.799440
H       0.534043   -0.023208   -1.707507
H      -1.070098    0.513941   -1.612122
H       1.505530   -0.384255    1.137894
H       0.567729   -1.864604    1.315767
H      -3.311664    0.176385    1.326176
H      -2.351661    1.440001    0.563752
