17

C       0.012784    1.531943   -0.043755
C      -0.006448    0.019573    0.082010
O      -0.047540   -0.536918    1.154306
C       0.029105   -0.766811   -1.226458
C       0.007239   -2.279998   -1.018535
C       0.044194   -3.039435   -2.358659
C       0.024038   -4.490514   -2.184225
N       0.007702   -5.636017   -2.033790
H       0.914066    1.860432   -0.573531
H      -0.844513    1.877949   -0.632135
H      -0.015705    1.985780    0.947298
H      -0.820048   -0.439572   -1.843536
H       0.923514   -0.456829   -1.785809
H       0.857453   -2.580335   -0.400174
H      -0.887862   -2.563076   -0.458092
H      -0.811400   -2.756144   -2.983595
H       0.944771   -2.773532   -2.925312
