16

C      -0.106826    1.518578    0.011958
C      -0.014698    0.002889    0.002329
O      -1.329245   -0.527823    0.011858
C      -1.362313   -1.931334    0.004180
C      -2.841124   -2.339202    0.016076
C      -3.012717   -3.788279    0.009404
N      -3.129431   -4.937721    0.003939
H       0.894451    1.958981    0.004931
H      -0.649910    1.876057   -0.867305
H      -0.632968    1.865818    0.905509
H       0.526234   -0.349151   -0.891536
H       0.543211   -0.359382    0.881550
H      -0.865663   -2.339629   -0.890523
H      -0.848572   -2.349764    0.884436
H      -3.325003   -1.919521    0.904107
H      -3.341993   -1.909378   -0.857571
