14

C      -0.028708    1.527311   -0.015325
C       0.059905    0.025952    0.022633
C      -0.819781   -0.819664    0.926248
C       0.669786   -0.833979    1.121578
O       1.381604   -1.865607    0.450107
C       1.143464   -1.644898   -0.869918
N       0.451376   -0.635327   -1.212121
H       0.914611    1.966128   -0.354890
H      -0.816705    1.844667   -0.705651
H      -0.260752    1.930136    0.974905
H      -1.387398   -0.291166    1.685032
H      -1.305262   -1.696011    0.509668
H       1.156912   -0.507250    2.031232
H       1.584451   -2.374308   -1.538236
