14

C       0.022061    1.512298    0.011287
C      -0.023917    0.017701    0.023480
C      -1.161060   -0.696490   -0.108983
F      -2.343692   -0.110773   -0.262926
C      -1.177676   -2.148828   -0.093609
N      -2.212248   -2.862802   -0.214433
O       0.095234   -2.710105    0.071825
C       1.178408   -1.914241    0.196126
N       1.198760   -0.643107    0.182989
H       0.672528    1.859013   -0.798723
H      -0.972098    1.940318   -0.117751
H       0.454982    1.880159    0.947610
H      -1.981170   -3.855169   -0.173883
H       2.081589   -2.503951    0.315212
