17

C       0.024154   -1.184763   -0.281863
C       0.033036    0.004204   -0.104586
C       0.036322    1.439942    0.088781
C      -0.820115    2.225439   -0.920741
O      -0.254153    3.525025   -0.963874
C       1.156917    3.351735   -0.907276
C       1.386705    2.236711    0.111505
C       0.994541    2.563255    1.563854
O      -0.248489    1.837020    1.452995
H       0.014117   -2.236727   -0.428728
H      -0.775051    1.734738   -1.905614
H      -1.859569    2.307091   -0.596702
H       1.557179    3.058502   -1.891520
H       1.599800    4.309841   -0.621104
H       2.307503    1.674523   -0.033294
H       1.646248    2.131344    2.332052
H       0.827222    3.624910    1.779377
