21

C       0.159471    1.326214   -0.110810
O       0.341214   -0.065769   -0.052365
C       0.515631   -0.537243    1.272908
C       0.614275   -2.041490    1.219803
C       1.840426   -2.827336    0.859236
C       3.110247   -2.180873    1.421498
C       2.515163   -2.359257    2.863366
O       2.338860   -1.230296    3.697035
C       1.230937   -2.925184    2.273412
H       1.023549    1.872786    0.301575
H       0.040446    1.599942   -1.162499
H      -0.737944    1.648123    0.442806
H       1.401526   -0.085202    1.735785
H      -0.347500   -0.247316    1.896744
H      -0.286799   -2.490537    0.805973
H       1.823783   -3.574810    0.076185
H       4.013127   -2.775642    1.265762
H       3.305842   -1.152371    1.104715
H       3.062400   -3.147424    3.397610
H       3.200634   -0.972393    4.040100
H       0.663620   -3.731783    2.722613
