15

C       0.013514   -1.235756   -0.028677
C       0.022045   -0.032384   -0.018616
C       0.041109    1.398572    0.006765
C      -0.526300    2.251302   -1.173379
C       0.424250    3.344997   -0.698624
C       1.297545    2.382546    0.007621
N       0.496841    3.343303    0.807274
C      -0.411606    2.233526    1.229890
H       0.003525   -2.297452   -0.039833
H      -0.211155    1.851660   -2.139566
H      -1.605410    2.435644   -1.174773
H       0.685030    4.274885   -1.185239
H       2.366539    2.237852    0.087603
H      -1.474733    2.489066    1.304430
H      -0.051420    1.828103    2.177457
