18

O       0.549958    0.974738    0.280310
C       0.096869   -0.321468    0.081203
C      -1.395563   -0.592921    0.003785
C      -2.373506    0.570260    0.087052
C      -3.034923    0.845358   -1.255356
O      -4.199279    1.137469   -1.380430
C      -2.127727    0.708392   -2.485068
N      -0.730608    0.496791   -2.103679
C      -0.537432   -0.650799   -1.250720
H       0.346456    1.437995   -0.550321
H       0.725384   -1.063935    0.562298
H      -1.747183   -1.543058    0.390827
H      -3.156632    0.402499    0.828334
H      -1.825384    1.474748    0.386352
H      -2.545695   -0.104486   -3.102784
H      -2.215646    1.630047   -3.069301
H      -0.124987    0.469915   -2.914529
H      -0.356258   -1.617236   -1.719766
