21

C      -0.221017    1.541741   -0.087508
C       0.113274    0.048599    0.039102
C       0.784110   -0.509170   -1.187007
C       0.019782   -1.013880   -2.387530
C       0.953917   -1.950807   -1.675214
C       2.395910   -1.663106   -2.106115
C       2.258031   -0.196421   -1.564596
C       2.500888    0.954786   -2.501772
O       3.135289    1.942489   -2.222431
H       0.681917    2.134340   -0.266982
H      -0.908142    1.720781   -0.920969
H      -0.691782    1.917877    0.825788
H       0.762827   -0.107624    0.910676
H      -0.803647   -0.522532    0.233008
H      -1.036459   -1.181246   -2.199416
H       0.233932   -0.683420   -3.400515
H       0.606290   -2.868051   -1.215059
H       3.151630   -2.221564   -1.551472
H       2.601232   -1.769694   -3.177240
H       2.864628   -0.036764   -0.669798
H       2.033097    0.850397   -3.508011
