18

C      -0.064719    1.378384   -0.192888
O      -0.087110   -0.019002    0.064193
C      -1.377260   -0.575799    0.056485
C      -1.661150   -1.302932   -1.303696
O      -0.971979   -0.824358   -2.418912
C      -1.201156   -2.641562   -0.656719
C      -1.375230   -1.977967    0.746378
C      -0.372698   -2.232627    1.764287
N       0.424037   -2.449481    2.573133
H       0.981395    1.688505   -0.150316
H      -0.475981    1.616263   -1.181811
H      -0.632108    1.926905    0.571705
H      -2.119727    0.141793    0.425106
H      -2.724898   -1.309658   -1.556392
H      -0.064495   -0.669139   -2.125597
H      -1.787007   -3.539957   -0.854920
H      -0.149361   -2.840703   -0.872942
H      -2.365338   -2.185802    1.161556
