20

C       0.125562    1.636712    0.180102
C       0.051560    0.102558    0.182826
C       0.360992   -0.527464   -1.166504
C       1.338056   -1.433433   -1.102419
C       1.870117   -1.540322    0.293378
C       2.388225   -2.862362    0.818838
O       2.853542   -2.764216    2.160893
N       2.496118   -0.265597    0.747346
C       1.082690   -0.570069    1.093344
H       1.140348    1.960770   -0.063353
H      -0.564749    2.064222   -0.554550
H      -0.139629    2.041331    1.162402
H      -0.957653   -0.195331    0.503767
H      -0.147406   -0.217808   -2.073939
H       1.735195   -2.001767   -1.936363
H       1.577813   -3.601718    0.806864
H       3.178608   -3.242640    0.155394
H       3.809827   -2.676773    2.142641
H       3.036804   -0.488643    1.584163
H       0.850855   -0.757083    2.136259
