17

C      -0.055844    1.554243    0.008146
C       0.051869    0.031945    0.006034
C       0.703419   -0.504849   -1.270865
C       1.013454   -1.990500   -1.191927
O       1.065033   -2.725979   -2.150385
N       1.272637   -2.444354    0.091132
C       1.294648   -1.701681    1.281906
O       1.686552   -2.187179    2.320949
N       0.858030   -0.410332    1.142874
H       0.935142    2.012070   -0.069980
H      -0.665116    1.893403   -0.834134
H      -0.529669    1.913052    0.928013
H      -0.963692   -0.390545    0.079093
H       0.069352   -0.340636   -2.143881
H       1.653069    0.018065   -1.444790
H       1.570414   -3.405920    0.185431
H       0.731818    0.057983    2.027913
