17

C       0.241346    1.381647   -0.269673
C      -0.064368   -0.097313   -0.053432
N       0.677638   -1.032263   -0.923205
C       1.585336   -1.404163    0.060254
N       2.716777   -1.960462    0.126990
C       0.740931   -0.768856    1.164938
N       1.434258    0.085487    2.083193
C      -1.508972   -0.348724   -0.047672
N      -2.648679   -0.540533   -0.020083
H       1.318738    1.548018   -0.208716
H      -0.124865    1.713644   -1.245836
H      -0.237338    1.984919    0.505294
H       0.862411   -0.897795   -1.907935
H       3.080855   -2.224458   -0.789367
H       0.097952   -1.505978    1.654630
H       1.140687   -0.063125    3.039301
H       2.432625   -0.083949    2.026473
