23

C      -0.175043    1.508832   -0.038797
C      -0.041871   -0.014845   -0.074067
C       0.834622   -0.492887   -1.235037
O       2.164708   -0.028564   -1.107614
O       0.604546   -0.529721    1.089365
C      -0.165335   -0.544033    2.274059
C       0.640571   -1.251766    3.355055
C      -0.097717   -1.325028    4.685126
O       0.744257   -1.998601    5.607277
H       0.816915    1.967041   -0.032053
H      -0.711205    1.859158   -0.926774
H      -0.730719    1.849885    0.838770
H      -1.038854   -0.476678   -0.170732
H       0.797180   -1.592439   -1.274280
H       0.447857   -0.105095   -2.183143
H       2.439696   -0.275785   -0.216390
H      -0.415700    0.479081    2.596159
H      -1.119298   -1.069133    2.095258
H       0.883460   -2.266354    3.022066
H       1.590079   -0.725924    3.502058
H      -0.340248   -0.308203    5.036192
H      -1.053675   -1.859026    4.554759
H       0.287295   -2.047156    6.451872
