18

C      -0.212186    1.577320   -0.079660
C       0.021483    0.067699    0.028090
C       0.956001   -0.483499   -1.113867
N       1.762421   -1.597216   -0.521642
C       1.705488   -1.308574    0.837822
C       0.768175   -0.421529    1.242223
C       0.818627   -0.454812    2.675217
C       1.801231   -1.343562    2.994196
O       2.360698   -1.896281    1.847838
H       0.732966    2.124762   -0.001872
H      -0.682642    1.838317   -1.034310
H      -0.870998    1.928018    0.721030
H      -0.955111   -0.433836   -0.043108
H       0.391720   -0.845951   -1.976332
H       1.617774    0.326320   -1.451187
H       2.696330   -1.666996   -0.910294
H       0.232278    0.107453    3.386101
H       2.238898   -1.676160    3.919308
