16

O       0.037343    1.328473    0.068191
C       0.034553   -0.066989   -0.013078
C       1.074033   -0.687474   -0.980732
C       0.372777   -1.770746   -1.872331
N      -0.142794   -2.741436   -0.888618
C      -0.888429   -2.118238   -0.090597
O      -0.735806   -2.166217    1.298180
C      -0.730324   -0.707280    1.228510
C      -1.339607   -0.654206   -0.118651
H       0.864239    1.602177    0.480523
H       1.468109    0.130307   -1.595576
H       1.911849   -1.156225   -0.456632
H      -0.402005   -1.294210   -2.489134
H       1.081700   -2.268222   -2.536766
H      -0.923390   -0.161976    2.143097
H      -2.238313   -0.202521   -0.515296
