17

C       0.575285    1.313970   -0.093469
C      -0.104053   -0.019466   -0.074024
C      -1.361912   -0.304251   -0.493634
O      -1.639488   -1.640760   -0.320587
C      -0.523954   -2.192141    0.219367
N      -0.641227   -3.549915    0.458008
C       0.318500   -4.370285    0.994686
N       1.471190   -3.954270    1.347062
C       0.453718   -1.263365    0.397969
H       1.486859    1.288849   -0.701275
H      -0.080072    2.087057   -0.504368
H       0.871415    1.625949    0.914502
H      -2.158389    0.282017   -0.919485
H      -1.527023   -3.955765    0.205333
H      -0.041857   -5.402283    1.072560
H       2.021443   -4.725227    1.717358
H       1.429123   -1.452032    0.808944
