16

O      -0.146507    1.364896   -0.081868
C       0.015045   -0.013817    0.236111
C      -1.373270   -0.613875    0.096471
N      -1.878126   -0.633343   -1.283957
C      -2.069226   -1.980275   -1.378101
O      -2.460288   -2.716112   -2.239895
C      -1.577982   -2.158357    0.110288
C      -0.440640   -3.120669    0.298145
O       0.685360   -2.831583    0.618358
H       0.721106    1.779040   -0.072368
H       0.715334   -0.508695   -0.446144
H       0.382143   -0.160602    1.260766
H      -2.051135   -0.087666    0.777925
H      -2.019671    0.115046   -1.945675
H      -2.416413   -2.487660    0.733865
H      -0.729574   -4.175609    0.099988
