19

C       0.108467    1.519205    0.206753
C       0.008118    0.023752   -0.104022
C      -1.396289   -0.515857    0.118740
O      -1.396862   -1.903910   -0.210427
C      -2.630704   -2.538489   -0.116067
C      -2.560625   -3.837440   -0.920644
O      -3.479000   -4.606361   -1.018386
C      -3.073637   -2.866180    1.318160
O      -2.491353   -2.488461    2.297327
H       1.127128    1.883495    0.047547
H      -0.557834    2.107527   -0.433862
H      -0.160614    1.729342    1.247535
H       0.299034   -0.170990   -1.142678
H       0.700035   -0.543214    0.528665
H      -1.703757   -0.376057    1.161702
H      -2.120229    0.012316   -0.525081
H      -3.453416   -1.943308   -0.558999
H      -1.569391   -4.000486   -1.393192
H      -3.988436   -3.494026    1.362760
