16

C      -0.138916    1.519623   -0.025711
C      -0.010803    0.019185   -0.001455
C       0.078240   -0.708107    1.313472
C       1.406619   -0.453624    2.047546
O       1.433783   -1.046850    3.333500
N       0.041764   -0.707130   -1.053287
O      -0.022616    0.070541   -2.222378
H       0.766894    1.979728   -0.435944
H      -0.960901    1.816861   -0.683443
H      -0.313192    1.921866    0.974250
H      -0.739420   -0.391019    1.972944
H      -0.033963   -1.781355    1.127237
H       2.242268   -0.800320    1.420519
H       1.550132    0.619020    2.215057
H       1.384014   -2.001262    3.218404
H      -0.004577   -0.601306   -2.911799
