19

C      -0.156030    1.602978   -0.010563
C       0.019896    0.078511   -0.008406
C       0.802409   -0.467253   -1.192800
C       1.794849   -1.284627   -0.831763
C       1.888652   -1.380173    0.656496
O       2.075107   -2.616608    1.283291
C       2.249490   -0.091130    1.379486
C       0.794831   -0.482857    1.184454
O       0.064255   -0.867356    2.304603
H       0.811159    2.115380   -0.003444
H      -0.703529    1.932719   -0.899697
H      -0.718499    1.925075    0.870842
H      -0.980790   -0.376543    0.009731
H       0.569020   -0.179283   -2.212367
H       2.477500   -1.798825   -1.499070
H       2.990347   -2.683733    1.572832
H       2.590381   -0.193312    2.405698
H       2.701851    0.714853    0.811399
H       0.299676   -1.788773    2.480535
