19

C       0.031362    1.565034   -0.057445
C       0.096022    0.036366   -0.026148
C       0.690587   -0.529841    1.259549
C       0.679196   -2.052419    1.318629
O       2.071643   -0.052967    1.303009
C       2.657604    0.059054    2.494101
N       2.115197   -0.232025    3.604328
C       4.014112    0.569723    2.357084
N       5.097292    0.970940    2.318975
H       1.029404    2.001593    0.035068
H      -0.404895    1.917256   -0.996479
H      -0.583649    1.952566    0.762252
H      -0.910706   -0.384874   -0.132077
H       0.681765   -0.336380   -0.875203
H       0.179480   -0.117645    2.135103
H       1.229904   -2.475420    0.472885
H       1.125341   -2.407965    2.249356
H      -0.352373   -2.414624    1.274404
H       2.743953   -0.053561    4.383470
