19

C      -0.120866    1.446699   -0.081635
N      -0.043686    0.006231    0.030248
C       0.668745   -0.623436    1.009846
C       1.281311    0.008382    2.041735
C       1.924550   -0.717306    3.140492
O       2.366312   -0.171101    4.140372
N       1.981328   -2.099351    2.995113
C       1.892034   -2.698426    1.675288
C       0.673725   -2.133641    0.945100
H       0.866683    1.909785   -0.218140
H      -0.749714    1.705115   -0.935702
H      -0.572364    1.876321    0.819439
H      -0.254852   -0.528527   -0.794884
H       1.273682    1.084571    2.150081
H       2.601908   -2.532031    3.664250
H       2.794566   -2.502965    1.072243
H       1.796842   -3.783287    1.780686
H      -0.248150   -2.511844    1.405744
H       0.678178   -2.474596   -0.097198
