15

O      -0.065123   -0.036531   -0.216167
C       0.014847    1.145233    0.007177
C       1.320971    1.896939   -0.006599
C       1.229690    3.276998   -0.723566
O       0.541723    3.801912    0.465648
C       1.465119    2.902812    1.174246
C       2.820429    3.604941    0.894394
O       3.643619    2.957444   -0.085657
C       2.643847    3.885642   -0.528756
H      -0.880186    1.757674    0.239171
H       2.151937    1.236111   -0.239986
H       0.695757    3.444828   -1.657556
H       1.174277    2.684100    2.200483
H       3.315865    4.241866    1.617453
H       2.984225    4.769082   -1.055647
