21

C      -0.041780    1.499138    0.036144
C       0.006107    0.004362   -0.023711
C      -0.013227   -0.753392   -1.125045
C       0.017013   -2.233681   -0.840003
C       1.313640   -2.574500   -0.074642
C       1.337726   -1.702104    1.211241
C       0.052989   -0.831021    1.239465
C      -1.150606   -1.797798    1.190241
O      -1.094315   -2.594271    0.010955
H       0.830390    1.903646    0.566021
H      -0.068046    1.941244   -0.963900
H      -0.926185    1.847428    0.585309
H      -0.058639   -0.363504   -2.136594
H      -0.097904   -2.844364   -1.736939
H       1.306629   -3.640461    0.171437
H       2.185630   -2.384995   -0.707738
H       1.367078   -2.331162    2.107221
H       2.221942   -1.059346    1.240167
H       0.008306   -0.221962    2.146712
H      -1.135370   -2.463964    2.065101
H      -2.097080   -1.239210    1.205472
