13

C      -0.377265    0.929071   -0.110666
N       0.776237    0.068904    0.055038
C       0.728064   -0.808284    0.946594
O       1.798057   -1.630461    1.145883
C       1.644760   -2.610237    2.153875
C       0.765418   -3.719150    1.746722
N       0.066727   -4.583675    1.433303
H      -0.073771    1.973225    0.021635
H      -0.755755    0.833533   -1.133968
H      -1.201738    0.713510    0.587347
H      -0.119971   -0.994339    1.622762
H       2.645101   -3.001667    2.353792
H       1.258986   -2.177641    3.086590
