16

C      -0.072692    1.499786   -0.005288
C       0.028351   -0.012817    0.030694
O       1.116798   -0.591521    0.026675
C      -1.185065   -0.779539    0.060430
C      -1.343961   -2.158422    0.061191
N      -0.330951   -3.069045    0.137539
C      -2.755454   -2.395181    0.029070
C      -3.338387   -1.163760    0.018933
O      -2.430761   -0.174651    0.040035
H       0.932320    1.921965   -0.032932
H      -0.639019    1.828731   -0.882780
H      -0.607749    1.871012    0.875063
H       0.588059   -2.671378   -0.015807
H      -0.497535   -3.992573   -0.226296
H      -3.261708   -3.347823    0.023443
H      -4.371826   -0.854406    0.001040
