21

C      -0.093864    1.504215   -0.102302
C      -0.044155    0.007909   -0.074423
C       0.118769   -0.812902   -1.118391
C       0.116206   -2.274379   -0.728827
C       0.033782   -2.229476    0.795868
C       1.138659   -1.537937    1.552731
C      -0.135838   -0.776426    1.208670
C      -1.054035   -0.338767    2.322521
O      -0.622707    0.856935    2.962428
H       0.722953    1.940213    0.485162
H      -0.024619    1.881653   -1.126290
H      -1.018652    1.883748    0.345565
H       0.262018   -0.483472   -2.142313
H      -0.743551   -2.806371   -1.159144
H       1.011040   -2.803464   -1.082694
H      -0.509953   -3.011019    1.314743
H       1.282107   -1.844378    2.585669
H       2.050460   -1.270005    1.028501
H      -2.054710   -0.116928    1.935316
H      -1.160656   -1.160446    3.049298
H       0.293136    0.718423    3.227384
