21

C      -0.203409    1.521036   -0.008434
C       0.023224    0.000729   -0.010076
O       0.593866   -0.411101   -1.255339
C       1.952871   -0.746766   -1.362891
C       2.149686   -1.530038   -2.637782
C       3.046897    0.174844   -0.895462
C       2.725639   -1.117979   -0.124779
C       1.992827   -0.999876    1.153077
C       0.767828   -0.479455    1.203782
H       0.744127    2.066011    0.011556
H      -0.753507    1.810562   -0.908304
H      -0.787591    1.820498    0.868367
H      -0.970718   -0.471462   -0.000583
H       1.836669   -0.934461   -3.501473
H       3.200356   -1.802318   -2.769035
H       1.549839   -2.445171   -2.620320
H       3.963087    0.213015   -1.476356
H       2.783675    1.101607   -0.400094
H       3.447361   -1.925941   -0.197008
H       2.484631   -1.343259    2.058922
H       0.240422   -0.379238    2.148099
