16

O       0.013529    1.369354   -0.219831
C       0.054948   -0.017882    0.077747
C      -1.372265   -0.527205    0.017223
C      -2.092817   -0.528517   -1.379376
C      -2.267514   -2.049201   -1.231221
O      -0.960471   -2.621634   -1.079287
C      -1.571262   -2.051009    0.077883
C      -3.320308   -2.880101   -1.726287
N      -4.196147   -3.513941   -2.136840
H       0.916801    1.694191   -0.277762
H       0.666973   -0.571674   -0.648006
H       0.472599   -0.203185    1.080970
H      -1.986151   -0.017046    0.764264
H      -3.036346    0.018065   -1.369958
H      -1.494752   -0.225164   -2.239885
H      -1.709817   -2.699833    0.935043
