12

N      -0.151438   -1.099038   -0.560061
C      -0.083933    0.004116   -0.224793
C       0.004643    1.409489    0.184599
C       1.398541    1.964381    0.086114
C       2.149252    2.541992    1.060398
O       3.332059    2.936607    0.575351
N       3.396954    2.613594   -0.777035
C       2.253394    2.041859   -1.052509
H      -0.689419    1.986229   -0.439416
H      -0.361759    1.494804    1.212789
H       1.977495    2.735067    2.108369
H       2.067426    1.690791   -2.058092
