18

C      -0.281710    1.607027    0.085744
C       0.055280    0.128599    0.040740
N       1.301170   -0.217378   -0.720580
C       1.807383   -1.102879    0.364266
C       0.726312   -0.525949    1.272361
C       0.770218   -0.073349    2.659230
O       0.037210   -1.248551    2.268081
C      -1.119043   -0.723837   -0.421214
O      -2.213573   -0.300974   -0.686564
H       0.588170    2.181360    0.412008
H      -0.583405    1.960541   -0.904040
H      -1.117840    1.790312    0.766791
H       1.140148   -0.680909   -1.610052
H       1.668740   -2.178837    0.198773
H       2.852148   -0.916818    0.634284
H       1.662179   -0.260346    3.255388
H       0.160405    0.769867    2.977844
H      -0.872587   -1.804646   -0.538658
