22

C       0.044359    1.536315   -0.014829
C       0.045013    0.013816    0.005079
O       0.647755   -0.420345   -1.204612
C       0.810213   -1.823614   -1.263475
C       1.881357   -2.312346   -0.283511
C       1.660374   -1.725592    1.111413
C       1.774930   -2.692781    2.269294
N       2.215655   -0.364061    1.278782
C       0.755511   -0.547086    1.227469
H       1.073818    1.902591    0.004647
H      -0.444992    1.902256   -0.921283
H      -0.489206    1.933007    0.854720
H      -0.996335   -0.359020    0.036244
H      -0.150726   -2.323387   -1.049169
H       1.086092   -2.060532   -2.295266
H       1.858049   -3.407493   -0.243968
H       2.872134   -2.014264   -0.639963
H       2.777137   -3.136604    2.308146
H       1.588207   -2.192311    3.225818
H       1.055359   -3.513725    2.174612
H       2.511140   -0.227267    2.242845
H       0.194934   -0.436054    2.155372
