23

C      -0.130601    1.492258    0.049271
C       0.014718   -0.024749    0.010819
C       0.838640   -0.589466   -1.191467
C       2.108759   -0.432813   -0.305972
C       1.149783   -0.629310    0.906573
C       0.888600   -2.119546    1.066088
C       0.982413   -2.726695    2.434071
C       0.588605   -2.798858   -0.045343
C       0.519659   -2.082949   -1.377284
H       0.824093    2.008768   -0.091685
H      -0.809453    1.835515   -0.739961
H      -0.545343    1.821594    1.008624
H      -0.966360   -0.489684    0.156777
H       0.796960   -0.044436   -2.139101
H       2.911737   -1.163932   -0.429114
H       2.525098    0.575208   -0.355201
H       1.385453   -0.134923    1.852653
H       0.273438   -2.254483    3.127094
H       0.776107   -3.800569    2.415369
H       1.980554   -2.577546    2.866800
H       0.391059   -3.867658   -0.018917
H      -0.478211   -2.203321   -1.823866
H       1.222838   -2.535979   -2.091342
