18

O      -0.178233    0.057102    0.586343
C      -0.139972    1.191145    0.174320
C      -1.312484    2.049303   -0.340561
C      -0.914759    3.488506    0.065688
C       0.626205    3.437744   -0.001240
C       1.563665    3.730576    1.188717
C       1.254918    2.847031    2.374109
C       1.944558    2.250640    1.183724
N       0.984594    2.003717    0.099282
H      -1.386982    1.946276   -1.429525
H      -2.250018    1.697048    0.091495
H      -1.343071    4.255842   -0.582561
H      -1.244714    3.695205    1.088885
H       1.011872    3.879321   -0.927059
H       2.214444    4.591017    1.262173
H       1.894276    3.019758    3.234165
H       0.240180    2.552190    2.625293
H       2.910273    1.764023    1.204198
