22

C      -0.047855    1.506829    0.026118
C       0.000091   -0.019244   -0.015376
C      -1.415679   -0.661274    0.017975
C      -1.261080   -2.052182    0.681242
C       0.050454   -1.974170    1.452582
C       0.720946   -0.674380    1.186055
N       1.340380   -1.924306    0.726477
C       1.283603   -1.963927   -0.750946
C       0.823087   -0.565590   -1.210142
H       0.959842    1.936087    0.034017
H      -0.572388    1.909586   -0.847418
H      -0.573250    1.863127    0.918877
H      -2.068422   -0.038626    0.640217
H      -1.872841   -0.707072   -0.976377
H      -2.085630   -2.264289    1.368282
H      -1.256519   -2.867374   -0.051704
H       0.118595   -2.482577    2.410881
H       1.249330   -0.076213    1.923724
H       2.282295   -2.209652   -1.123630
H       0.611568   -2.757335   -1.096970
H       0.254344   -0.582858   -2.145353
H       1.697593    0.075218   -1.371579
