15

C      -0.053660    1.599826   -0.012716
C       0.054818    0.105474   -0.028216
C       0.671992   -0.910723   -0.952566
O       1.151580   -1.712083    0.152512
C       0.664811   -0.766587    1.052162
O       0.814915   -0.737829    2.227457
C      -0.825509   -0.826446   -0.910257
C      -1.668681   -1.865368   -0.394852
C      -2.388039   -2.727301    0.033534
H       0.891353    2.059065    0.293086
H      -0.316205    1.984424   -1.002486
H      -0.827845    1.922480    0.690400
H       1.312623   -0.820045   -1.818832
H      -1.244252   -0.267133   -1.746211
H      -3.013582   -3.494397    0.418513
