14

N       0.044193    1.226192   -0.268323
C       0.030538    0.003499   -0.016691
O       1.038186   -0.873697    0.318082
C       0.106070   -1.983891    0.470126
C      -1.069519   -1.065989    0.025745
C      -2.173680   -0.874519    0.934242
C      -3.098118   -0.727351    1.700720
C      -4.134333   -0.560104    2.565598
C      -5.054709   -0.414242    3.333291
H       0.984741    1.617982   -0.201519
H       0.354276   -2.805897   -0.203924
H       0.060879   -2.323282    1.506166
H      -1.428157   -1.301209   -0.981659
H      -5.863779   -0.281604    4.008080
