21

C       0.725130    1.327199    0.088102
C       0.006581   -0.003763    0.008525
C       0.247981   -0.878104   -1.246622
C       0.944017   -1.818836   -0.275208
C       1.032690   -3.310505   -0.149910
C       2.297606   -2.460660   -0.281346
C       3.143947   -2.541216   -1.525665
O       3.052751   -2.243551    0.876343
O       0.618921   -1.014836    0.868572
H       1.777238    1.219159   -0.194269
H       0.257085    2.053524   -0.585397
H       0.680264    1.726701    1.105974
H      -1.049801    0.109055    0.276940
H      -0.658157   -1.276308   -1.707399
H       0.882170   -0.430995   -2.015789
H       0.824143   -3.728237    0.829791
H       0.719582   -3.920051   -0.992688
H       2.528231   -2.708083   -2.414501
H       3.715377   -1.617300   -1.665071
H       3.856499   -3.369054   -1.446980
H       2.574071   -1.574636    1.387888
