19

C      -0.879589    1.228491   -0.127712
C      -0.015477   -0.024765   -0.097913
C       1.410283   -0.004096   -0.741707
C       1.964197   -0.748994    0.497907
O       2.626940    0.126872    1.431250
C       1.418546    0.325042    2.172470
C       1.017769    1.765185    2.376525
O       1.611622    2.720042    1.949306
C       0.593459   -0.596012    1.218789
H      -0.336299    2.112217    0.214783
H      -1.216328    1.430592   -1.150402
H      -1.773438    1.111562    0.495666
H      -0.584865   -0.849132   -0.542465
H       1.499967   -0.520536   -1.700200
H       1.852664    0.991566   -0.824818
H       2.497670   -1.691711    0.359199
H       1.489329   -0.121734    3.179442
H       0.098276    1.874215    3.000701
H       0.056290   -1.406438    1.710123
