14

N      -0.929254   -0.003894   -1.431625
C      -0.392866    0.448655   -0.514134
C       0.297085    1.027670    0.634188
C       1.564062    1.796071    0.293436
N       2.191777    2.323427    1.349837
C       3.307516    3.004998    1.095838
N       3.867347    3.219228   -0.096156
C       3.225241    2.684703   -1.136349
C       2.050987    1.951364   -0.999489
H      -0.386762    1.697800    1.167431
H       0.549790    0.231677    1.343875
H       3.816835    3.433291    1.955754
H       3.666286    2.847964   -2.116939
H       1.543900    1.524385   -1.855815
