18

C      -0.083169    1.512206    0.060502
C       0.025764    0.021139    0.018345
C       0.818591   -0.851718   -0.971703
C       1.058731   -2.146717   -0.281043
C       0.928000   -1.998161    1.213638
C      -0.127191   -0.905486    1.219597
O      -0.616172   -0.338372    2.387136
C      -1.018022   -1.076009    0.006255
N      -0.248262   -1.906465   -0.989421
H       0.890311    1.974485    0.263492
H      -0.454532    1.916333   -0.887583
H      -0.767067    1.817462    0.857033
H       1.305637   -0.517000   -1.881430
H       1.675701   -2.915546   -0.731590
H       0.580895   -2.916930    1.700753
H       1.863882   -1.680131    1.684787
H      -1.232898   -0.958897    2.791367
H      -2.100928   -1.057538    0.004023
