16

C      -0.012857    1.560174   -0.003756
C      -0.000495    0.057858   -0.016657
C      -0.046988   -0.671390   -1.160919
N      -0.020950   -2.023885   -1.127590
C       0.054630   -2.780090    0.074646
O       0.072634   -3.991501    0.000385
N       0.094892   -2.046746    1.231672
C       0.075213   -0.732603    1.192900
N       0.165229   -0.085586    2.389340
H       0.880277    1.972038    0.482323
H      -0.044537    1.956818   -1.022289
H      -0.886773    1.963929    0.525361
H      -0.104040   -0.210683   -2.141846
H      -0.055084   -2.570640   -1.974571
H       0.074914   -0.663488    3.209955
H      -0.098113    0.880656    2.466891
