19

C       0.012422    1.469565    0.181678
C       1.359617    0.822097   -0.059152
C       1.728586    0.002082    1.179871
O       0.445664   -0.688170    1.177683
C       0.102089   -0.017105   -0.044661
C      -0.327865   -0.726700   -1.251409
C       0.200093   -0.366414   -2.428030
C       1.215676    0.745019   -2.578368
C       2.140449    0.936680   -1.340334
H      -0.247202    1.824309    1.175179
H      -0.391649    2.055351   -0.636445
H       2.547127   -0.704806    0.997605
H       1.906076    0.538741    2.119723
H      -1.050062   -1.533189   -1.166431
H      -0.124991   -0.862494   -3.338331
H       1.833933    0.566735   -3.464947
H       0.691388    1.690046   -2.779471
H       2.677835    1.887261   -1.433930
H       2.898252    0.143539   -1.347540
