21

C      -0.246115    1.443638    0.344792
O      -0.188332    0.178744   -0.297082
C      -1.375450   -0.546173   -0.182436
C      -1.288289   -1.992949   -0.775193
C       0.104698   -2.462820   -1.164904
N      -1.785512   -2.475600    0.532984
C      -1.658058   -1.237731    1.160437
N      -1.724568   -0.815747    2.349293
C      -1.947985   -1.811831    3.389757
H       0.725900    1.918540    0.193406
H      -1.027856    2.077589   -0.101962
H      -0.447067    1.336421    1.416330
H      -2.233662    0.033177   -0.555359
H      -2.000816   -2.188677   -1.583932
H       0.829519   -2.236241   -0.379610
H       0.105218   -3.542638   -1.349613
H       0.432081   -1.962373   -2.080799
H      -1.589190   -3.380010    0.937987
H      -2.183154   -1.309337    4.331516
H      -2.779483   -2.492926    3.152288
H      -1.053040   -2.428874    3.561182
