16

C      -0.102642   -1.220135   -0.059504
C      -0.104056   -0.018072   -0.033836
C      -0.136701    1.429708   -0.001467
C      -0.098069    2.006381    1.460458
O       1.332044    2.364665    1.296213
C       1.189857    2.153429   -0.042656
N       1.618647    2.692611   -1.094284
C       0.570487    2.333091   -2.099736
C      -0.742685    2.074339   -1.273014
H      -0.088586   -2.281818   -0.084010
H      -0.688673    2.911933    1.619516
H      -0.228485    1.281442    2.262682
H       0.455827    3.164474   -2.798893
H       0.864854    1.448093   -2.676814
H      -1.469913    1.441500   -1.783939
H      -1.212059    3.032932   -1.030045
