16

C       0.064198    1.464190   -0.019724
N       0.011796    0.009432    0.001131
C      -0.045817   -0.673845    1.201373
N      -0.055327   -0.070106    2.323900
C       0.021091   -0.665402   -1.208236
N      -0.023691   -1.997523   -1.308203
N       0.005470   -2.194929   -2.627329
N       0.064692   -1.121663   -3.389013
C       0.076337   -0.118133   -2.509728
H       0.981888    1.812839   -0.506559
H      -0.798314    1.876271   -0.555448
H       0.048026    1.807328    1.013035
H      -0.080279   -1.754449    1.052993
H      -0.100444   -0.746975    3.081510
H      -0.016799   -3.123067   -3.016035
H       0.121687    0.907030   -2.834824
