17

C      -0.166402    1.530316    0.112434
C       0.009651    0.029486    0.085276
C      -1.250194   -0.806165   -0.203131
C      -1.118777   -1.990885    0.723104
C      -0.048541   -1.915937    1.516270
C       0.766921   -0.681529    1.242705
C       1.852525   -0.899520    0.175045
O       2.943643   -1.364910    0.105820
O       1.109833   -0.346562   -0.835990
H       0.780367    2.032282    0.330325
H      -0.530006    1.891835   -0.854716
H      -0.895639    1.812857    0.878151
H      -2.168581   -0.236287   -0.013434
H      -1.270947   -1.094970   -1.260924
H      -1.831703   -2.807765    0.722526
H       0.250227   -2.655661    2.248768
H       1.079987   -0.108977    2.118229
