14

N       0.141877    1.367379    0.125505
C      -0.003183   -0.018469    0.015603
C      -1.105993   -0.821167   -0.047566
N      -0.617874   -2.126115   -0.030324
N      -1.081362   -3.404895   -0.066299
C       0.067767   -4.083229   -0.027419
N       1.225828   -3.357973    0.024195
C       0.733876   -2.130065    0.020703
N       1.141357   -0.821898    0.032721
H       0.564908    1.787649   -0.696523
H      -0.744351    1.821216    0.304643
H      -2.151175   -0.581065   -0.118418
H       0.067846   -5.163169   -0.037150
H       2.057258   -0.496049    0.288147
