13

O       0.040427   -0.054111    0.004309
C      -0.039225    1.162717    0.008081
C       1.142696    2.008192    0.001722
C       2.143103    2.676439   -0.003732
C      -1.332828    1.841472    0.019406
C      -2.607547    1.338898    0.027446
C      -3.480722    2.459668    0.036828
C      -2.674163    3.562120    0.033874
O      -1.373926    3.208252    0.023362
H       3.029811    3.262482   -0.008144
H      -2.862937    0.291609    0.026529
H      -4.559114    2.455091    0.044726
H      -2.871987    4.621962    0.038163
