17

C      -0.070441    1.524328    0.049817
O       1.327333    1.883823   -0.097910
C       2.162561    0.710254    0.061976
C       1.270858   -0.249908    0.834971
C       0.077932    0.022249   -0.077525
O      -0.725638   -1.025250   -0.567996
C       0.262664   -0.439736   -1.453751
C       1.681690   -0.915619   -1.681473
O       2.555702    0.120027   -1.170932
H      -0.442862    1.865187    1.023876
H      -0.651530    1.990418   -0.749099
H       3.084539    1.055395    0.529449
H       1.616550   -1.281416    0.842966
H       1.093048    0.087876    1.858759
H      -0.187808    0.143067   -2.253288
H       1.875929   -1.879253   -1.195889
H       1.931411   -1.008279   -2.740064
