19

C       0.281891    1.251666   -0.182332
O      -0.290720    0.048897    0.285970
C       0.511473   -0.633271    1.200670
C       0.052304   -2.068297    1.534005
C      -0.207225   -2.902258    0.252176
C       1.318739   -3.012242    0.033638
O       1.871046   -1.796949   -0.526737
C       1.908757   -1.174465    0.770625
C       1.568236   -2.511218    1.487745
H       1.209807    1.068043   -0.740910
H      -0.446230    1.716691   -0.850885
H       0.499089    1.947540    0.643488
H       0.644533   -0.054607    2.132924
H      -0.614128   -2.201254    2.385112
H      -0.631458   -3.879230    0.505446
H      -0.788846   -2.437402   -0.546055
H       1.739839   -3.903906   -0.435146
H       2.799136   -0.558007    0.910195
H       2.139154   -3.002213    2.270109
