22

C       0.090095    1.488404    0.022065
C      -0.038200   -0.015618    0.010157
C      -0.611260   -0.744437    1.177626
N       0.837552   -0.781634    0.921892
C       1.273273   -1.991254    0.197120
C       0.362118   -2.166076   -1.037990
C      -0.113857   -0.729371   -1.342507
C      -1.477287   -0.657735   -2.016623
O      -1.376042   -1.314633   -3.273166
H       0.940862    1.812450   -0.588302
H      -0.810916    1.967665   -0.377725
H       0.246035    1.853751    1.040237
H      -0.897085   -0.188534    2.066706
H      -1.197854   -1.644229    1.008789
H       2.312255   -1.824874   -0.108659
H       1.263153   -2.857761    0.866227
H       0.881237   -2.620079   -1.883760
H      -0.494866   -2.810629   -0.815401
H       0.607052   -0.243480   -2.013949
H      -2.231608   -1.140428   -1.374024
H      -1.779782    0.393839   -2.145057
H      -2.236962   -1.282957   -3.700288
