19

O      -0.055590   -0.031098   -0.109127
C       0.030184    1.160937    0.029957
C       1.311096    1.958778    0.001071
C       1.328270    2.994341   -1.152820
C       2.386949    4.011986   -0.700615
C       2.152462    4.125518    0.800797
C       2.902960    5.029011    1.676427
O       1.564176    5.342040    1.279740
C       1.495834    2.822831    1.276839
H      -0.880027    1.789229    0.191550
H       2.141396    1.256326   -0.116741
H       1.542412    2.534106   -2.120049
H       0.348322    3.483436   -1.226049
H       3.391155    3.614517   -0.893058
H       2.307189    4.985654   -1.189095
H       3.033176    4.778632    2.729068
H       3.677946    5.671360    1.257942
H       0.528635    3.075024    1.727134
H       2.082736    2.300921    2.036475
