14

C       0.097297   -1.340868   -0.392402
C       0.079224   -0.171721   -0.127529
C       0.055424    1.259737    0.168553
O      -0.384357    1.476509    1.485398
C       0.206043    2.715964    1.882700
C       1.574709    2.663152    1.198112
O       1.349622    1.828779    0.053475
C      -0.853838    1.968757   -0.792750
N      -1.554671    2.543031   -1.509039
H       0.114614   -2.378353   -0.622879
H      -0.396576    3.560873    1.525962
H       0.249819    2.729634    2.972150
H       1.926941    3.642633    0.864647
H       2.335611    2.197260    1.833464
