23

C       0.364970    1.655719   -0.130854
C       0.338290    0.126417   -0.230336
C       0.742860   -0.558890    1.071271
C      -0.158248   -0.453153    2.356136
C      -0.030911   -1.996285    2.561634
C      -1.138219   -2.935042    2.024289
C      -1.801679   -2.390545    0.796666
C      -0.426827   -2.989924    0.659286
C       0.724837   -2.114777    1.209820
H       1.365904    2.018567    0.129260
H       0.076878    2.122994   -1.077864
H      -0.325286    2.014704    0.640377
H      -0.657584   -0.202662   -0.544720
H       1.024067   -0.200433   -1.023783
H       1.752126   -0.214749    1.330459
H       0.274276    0.146930    3.160200
H      -1.177604   -0.095351    2.184957
H       0.436485   -2.327269    3.488797
H      -1.583452   -3.742390    2.594340
H      -2.593640   -3.018460    0.398650
H      -1.995156   -1.331470    0.672610
H      -0.270075   -3.845445    0.012201
H       1.690441   -2.620860    1.157478
