18

O       0.188898    0.629522   -1.188858
C       0.011356    1.320715   -0.216161
C      -1.340852    1.979479    0.070153
N      -1.275440    2.767343    1.294297
C      -0.223281    3.777296    1.214672
C       1.140052    3.084633    1.198927
C       2.359982    3.872970    0.990652
O       2.016906    3.379830    2.290616
C       1.084204    1.608151    0.822348
H      -1.610041    2.560708   -0.831931
H      -2.087643    1.184712    0.173125
H      -2.170748    3.197965    1.490373
H      -0.318235    4.414936    0.314800
H      -0.268339    4.427275    2.092206
H       3.231380    3.412015    0.527132
H       2.291797    4.954327    0.870006
H       0.798098    1.058045    1.729081
H       2.046776    1.229058    0.476254
