17

C      -0.199559    1.417152    0.338298
O      -0.341724    0.036347    0.595113
C      -1.014825   -0.637257   -0.437064
C      -1.160749   -2.081982   -0.085528
C      -1.001833   -2.825478    1.047077
C      -0.590193   -2.477111    2.437625
N      -1.319470   -4.122713    0.686126
N      -1.644026   -4.202278   -0.521794
O      -1.554568   -2.883757   -1.078610
H       0.332780    1.849427    1.187612
H       0.380162    1.599308   -0.579174
H      -1.176804    1.912963    0.236106
H      -2.014688   -0.200247   -0.608630
H      -0.469350   -0.554029   -1.392186
H      -1.366087   -2.766939    3.153431
H       0.324962   -3.009457    2.716664
H      -0.411240   -1.406222    2.520705
