16

O      -0.037183   -0.028976   -0.289743
C      -0.005484    1.139543   -0.040974
O      -1.124332    1.908938    0.138553
C      -0.656675    3.209711    0.569294
C       0.058642    2.981778    1.929430
N       1.452797    2.729175    1.459196
C       1.659936    4.017457    0.678514
C       0.604107    3.482836   -0.297467
C       1.172066    2.090044    0.066243
H      -1.491794    3.904246    0.520768
H       0.047878    3.846658    2.596068
H      -0.354644    2.117358    2.452347
H       1.473732    4.934067    1.244827
H       2.664433    4.038089    0.250245
H       0.451643    3.826669   -1.320707
H       2.092414    1.738918   -0.392049
