23

C       0.145105    1.664288   -0.044847
C       0.065727    0.147213    0.045656
C       0.919213   -0.730397   -0.922680
C       1.308483   -1.681354    0.255308
C       0.841337   -3.116691    0.170101
C       2.714205   -1.380438    0.833545
C       2.118445   -0.217206    1.684740
C       0.681414   -0.628803    1.239061
O      -0.182066   -1.070518    2.253358
H       1.180308    2.020527   -0.011055
H      -0.292086    2.023499   -0.983085
H      -0.400355    2.145720    0.775608
H      -0.981278   -0.170713   -0.016516
H       0.361564   -1.201918   -1.735756
H       1.774078   -0.201767   -1.356923
H       1.418109   -3.670085   -0.581438
H       0.960590   -3.628393    1.130689
H      -0.215924   -3.179407   -0.109746
H       3.094649   -2.196604    1.454470
H       3.487156   -1.111099    0.107789
H       2.266817   -0.332454    2.760897
H       2.435891    0.787991    1.396213
H      -0.377017   -0.325861    2.833341
