18

C      -0.353120    1.397430   -0.048376
C       0.072975   -0.078078    0.003530
C       0.956635   -0.480126   -1.160115
C       2.187343   -0.839670   -0.793685
C       2.362156   -0.814139    0.702811
C       0.954304   -0.410761    1.217966
O       0.757982   -1.775105    1.723557
C       2.045275   -2.140475    1.379201
N       2.676556   -3.203024    1.582061
H       0.519738    2.058677   -0.029322
H      -0.909573    1.610679   -0.966171
H      -0.994629    1.651688    0.801820
H      -0.827505   -0.704910    0.048573
H       0.598762   -0.454554   -2.184106
H       2.978639   -1.160808   -1.460067
H       3.253184   -0.299272    1.065767
H       0.884121    0.301945    2.042114
H       2.105171   -3.886024    2.082807
