23

C      -0.092530    1.368310   -0.114399
O      -0.029728   -0.028156    0.066956
C       0.682740   -0.514071    1.214668
C       2.171188   -0.141936    1.150999
C       0.056978   -0.023449    2.529116
C       0.548779   -2.047278    1.062342
O       1.235582   -2.675592    2.130071
C      -0.893425   -2.561363    1.014729
O      -0.889010   -3.992379    1.022459
H       0.898424    1.821348   -0.255117
H      -0.678418    1.536625   -1.021911
H      -0.592520    1.880459    0.719287
H       2.329278    0.927578    1.315989
H       2.718657   -0.689310    1.921277
H       2.586477   -0.408933    0.174221
H      -1.033826   -0.096319    2.498342
H       0.424919   -0.637582    3.353976
H       0.321652    1.017428    2.734770
H       1.024385   -2.306956    0.098494
H       0.871424   -3.570510    2.170833
H      -1.433155   -2.273141    1.920711
H      -1.421645   -2.155475    0.146684
H      -0.584850   -4.289193    0.157814
