15

C       0.136424    1.592156   -0.082424
C      -0.043993    0.071815    0.071709
C       0.572927   -0.465074    1.318953
C       0.064377   -1.057655    2.432534
C       1.218916   -1.300451    3.225503
O       1.219338   -1.880634    4.435718
N       2.325493   -0.894273    2.652111
O       1.911558   -0.357277    1.425866
H       1.196642    1.856885   -0.094922
H      -0.315632    1.936785   -1.016623
H      -0.336594    2.128007    0.745730
H      -1.106788   -0.187562    0.079683
H       0.402103   -0.438153   -0.790772
H      -0.960740   -1.291241    2.662729
H       2.136216   -1.919004    4.739751
