13

C      -0.013571    1.453560   -0.022481
C       0.013529    0.000828    0.013604
C       0.030761   -1.202270    0.038279
C       0.075718   -2.639331    0.058502
C      -0.585617   -3.419501    1.138643
O      -1.159088   -3.348289   -0.155353
C       1.228463   -3.240288   -0.597262
N       2.152403   -3.710763   -1.106650
H       0.840274    1.844612   -0.585437
H      -0.927565    1.814097   -0.506107
H       0.024055    1.877180    0.986566
H      -0.167816   -4.383568    1.422087
H      -1.100383   -2.862605    1.918651
