19

C      -0.175865    1.629200   -0.121171
C      -0.054418    0.114768   -0.046651
C       1.183034   -0.586486   -0.653431
C       2.087128   -0.248392    0.582624
C       2.541254   -1.724884    0.737838
C       2.928365   -2.200591    2.051426
C       3.248268   -2.592455    3.143117
C       1.048430   -1.803104    0.322436
C       0.656901   -0.539203    1.160617
H       0.764545    2.125709    0.139547
H      -0.454873    1.952494   -1.130243
H      -0.946926    1.995067    0.565914
H      -1.006046   -0.364725   -0.310640
H       1.513216   -0.634954   -1.693167
H       2.689882    0.646351    0.736632
H       3.246214   -2.067788   -0.028707
H       3.531905   -2.938989    4.105722
H       0.436376   -2.693172    0.170957
H       0.379591   -0.531618    2.214974
