17

C      -0.125157    1.494123    0.015452
N       0.111787    0.060003    0.078921
C       1.387963   -0.550429   -0.189375
C       2.584551    0.266804    0.329233
C       1.956719    0.252377    1.755207
C       0.767739   -0.578693    1.208350
C       0.105721   -1.615707    1.930630
C      -0.420640   -2.481411    2.579605
H       0.701431    2.125582    0.368744
H      -0.337027    1.762080   -1.024229
H      -1.011809    1.725670    0.612750
H       1.431058   -1.344176   -0.927821
H       3.517893   -0.297568    0.284328
H       2.744641    1.240738   -0.142084
H       2.553503   -0.320099    2.466496
H       1.697301    1.213222    2.208045
H      -0.897190   -3.247741    3.138594
