18

O      -1.010567    1.351500    0.282598
C       0.142121    1.032552    0.401623
C       1.316282    1.907619    0.032792
N       2.460520    1.393882    0.219453
C       3.723033    2.098343    0.079812
C       3.954564    2.928508   -1.188909
C       3.027774    4.137376   -1.310217
C       1.570207    3.750371   -1.516314
O       0.937782    3.137159   -0.385854
H       0.470690    0.052878    0.801115
H       3.828229    2.756994    0.956440
H       4.516853    1.349286    0.163852
H       4.998672    3.262181   -1.179307
H       3.839963    2.283046   -2.069619
H       3.109852    4.773293   -0.419600
H       3.326038    4.751932   -2.168518
H       0.958152    4.633580   -1.713165
H       1.478030    3.073623   -2.377110
