22

C       0.377435    1.312016   -0.111166
C       0.015073   -0.154905    0.119985
O       0.282781   -0.548409    1.465113
C      -1.436607   -0.455913   -0.271122
N      -1.676184   -1.889280   -0.286784
C      -1.986061   -2.667328    0.889865
C      -2.916486   -1.937623    1.875835
C      -3.952835   -1.748296    0.723581
C      -2.991039   -2.489000   -0.227414
H       1.403708    1.501306    0.214386
H       0.291885    1.583163   -1.168255
H      -0.288421    1.974549    0.457158
H       0.664904   -0.796280   -0.485287
H      -0.188091    0.060424    2.045122
H      -2.102870    0.111477    0.401500
H      -1.622455   -0.083153   -1.285871
H      -1.344301   -3.507417    1.130512
H      -3.290258   -2.600477    2.659032
H      -2.508190   -1.040073    2.349219
H      -4.872078   -2.310602    0.901193
H      -4.223091   -0.724854    0.445068
H      -3.283690   -3.164483   -1.024756
