12

N      -0.111867    1.576264   -0.045044
C       1.363157    1.310478    0.008774
C       1.262937    0.033514    0.919226
N       1.971984   -0.886762   -0.029235
C       1.230938    0.062246   -0.922823
C      -0.009601    0.081448    0.012700
H      -0.436106    1.939493    0.855465
H       2.121262    2.096571   -0.001062
H       1.328079   -0.049151    2.006280
H       2.972778   -0.671910   -0.044469
H       1.251409    0.021740   -2.011438
H      -0.865914   -0.592232    0.007620
