21

C      -0.027184    1.476709   -0.283646
C       0.144745   -0.011389   -0.069647
C       1.509281   -0.661633   -0.040263
C       0.664586   -0.620055    1.216226
C       1.096725    0.253734    2.377770
C       0.030104   -1.961955    1.622141
N       0.871068   -2.884911    2.391351
C      -1.219019   -1.724231    2.368494
N      -2.189904   -1.497399    2.952295
H       0.785588    2.056035    0.162425
H      -0.041347    1.707857   -1.354190
H      -0.968718    1.834273    0.146606
H      -0.628226   -0.601517   -0.558372
H       1.648172   -1.609077   -0.553066
H       2.378066   -0.011519   -0.075757
H       1.568256    1.176452    2.034687
H       0.243306    0.526361    3.008174
H       1.828697   -0.264465    3.007658
H      -0.254125   -2.485853    0.700168
H       1.748418   -3.012717    1.894432
H       1.099904   -2.481278    3.294605
