18

C      -0.108624    1.509671   -0.045651
C       0.039359    0.006384    0.016201
C       1.349279   -0.681354   -0.220158
C       0.744799   -0.699975    1.185796
C       1.417981    0.092171    2.299973
C       0.154075   -1.931103    1.613814
C      -0.346041   -2.965312    1.997442
C      -0.911326   -4.131875    2.419615
N      -1.394496   -5.126577    2.778718
H       0.798822    2.031400    0.268572
H      -0.322961    1.819810   -1.073968
H      -0.933919    1.856022    0.585043
H      -0.830273   -0.534355   -0.345875
H       1.366277   -1.608488   -0.780573
H       2.234480   -0.064207   -0.337547
H       1.893812    0.994281    1.910327
H       0.694043    0.389421    3.064494
H       2.190997   -0.512517    2.783039
