18

O       0.674968    0.310506    1.221721
C       0.310492    1.238164    0.527719
N       1.012137    1.762233   -0.511899
C       2.353893    1.313677   -0.847035
C       3.451278    2.183305   -0.239314
C       3.831946    1.918217    1.210653
C       4.768673    1.507338    0.113196
C       3.477514    3.537477   -0.722649
C       3.457049    4.662163   -1.151539
H      -0.664508    1.745556    0.664828
H       0.671223    2.608538   -0.940404
H       2.445006    0.293504   -0.468840
H       2.457474    1.290895   -1.936781
H       4.101607    2.774892    1.816434
H       3.256438    1.154015    1.720221
H       4.858565    0.452577   -0.124310
H       5.674658    2.082729   -0.033980
H       3.461003    5.657598   -1.520942
