21

C      -0.013772    1.505561   -0.408633
C      -0.019401    0.132607    0.271863
C      -1.389044   -0.535744    0.222348
N      -1.799448   -1.109395   -1.084471
C      -1.613867   -2.023906    0.051433
C      -0.428331   -2.963679   -0.063206
C      -2.837175   -2.668064    0.676193
C      -2.398821    0.192188    0.964953
N      -3.188249    0.800734    1.553661
H       0.986007    1.947493   -0.374817
H      -0.311667    1.412829   -1.457216
H      -0.704582    2.197501    0.082971
H       0.703889   -0.521887   -0.217904
H       0.287813    0.225237    1.320196
H      -2.788336   -0.937193   -1.253912
H       0.377596   -2.535080   -0.658669
H      -0.040448   -3.226419    0.926436
H      -0.744529   -3.890035   -0.555006
H      -3.185332   -3.490445    0.041401
H      -2.596678   -3.087641    1.658601
H      -3.658502   -1.959874    0.806975
