17

C      -0.241260    1.587698   -0.010432
C       0.005470    0.068884    0.030664
C       0.718030   -0.447501   -1.182563
C       2.085602   -0.672365   -1.328499
N       2.261378   -1.111979   -2.611661
N       1.119363   -1.192031   -3.303039
C       0.184328   -0.789101   -2.443272
C       3.154700   -0.522146   -0.423153
C       4.069905   -0.396186    0.350405
H       0.704879    2.133877   -0.071973
H      -0.843551    1.865469   -0.881080
H      -0.769705    1.920021    0.888717
H       0.590619   -0.177937    0.923146
H      -0.954584   -0.450175    0.134703
H       3.129747   -1.377688   -3.045512
H      -0.850323   -0.761912   -2.754388
H       4.874203   -0.282952    1.034502
