18

C      -0.858561    1.268822    0.239094
C       0.033506    0.072602    0.038550
N       0.024535   -0.554489   -1.060322
C       0.785358   -1.738704   -1.419066
C       0.807238   -2.877127   -0.395771
O       0.500972   -4.004399   -0.696385
C       1.252546   -2.537904    1.027734
C       1.778524   -1.123886    1.222562
O       0.749397   -0.133770    1.184361
H      -0.255643    2.158414    0.447564
H      -1.461869    1.430847   -0.652217
H      -1.509180    1.111608    1.105245
H       0.358691   -2.155237   -2.335047
H       1.828009   -1.475455   -1.654436
H       0.405483   -2.712718    1.702070
H       2.021593   -3.267410    1.306523
H       2.216470   -1.018889    2.217919
H       2.559205   -0.879107    0.492523
