20

C      -0.046421    1.560311    0.114266
C       0.053625    0.063369   -0.024764
C       0.622517   -0.792485   -1.161936
C       2.101265   -0.865586   -1.491518
O       2.396545   -2.093999   -2.135298
N       0.166453   -1.887055   -0.194869
C       0.563048   -0.994312    1.016686
C      -0.811108   -1.189736    1.661812
C      -1.066648   -1.017876    0.163646
H       0.945203    2.025737    0.105647
H      -0.624997    1.991986   -0.709845
H      -0.538618    1.840595    1.052069
H       0.032605   -0.815761   -2.087966
H       2.382495   -0.066732   -2.186892
H       2.709457   -0.734722   -0.581558
H       1.949770   -2.778363   -1.621279
H       1.551413   -1.073481    1.470991
H      -1.012391   -2.181906    2.073818
H      -1.168173   -0.396806    2.323261
H      -1.989500   -1.120143   -0.411418
