18

N       0.201230    1.598924   -0.754721
C      -0.016760    0.247190   -0.289848
C       0.903217   -0.924327   -0.831376
N       1.440528   -1.029679    0.527654
C       0.658272   -0.053826    1.085770
O       0.534228    0.367063    2.206998
C      -1.498038   -0.063073   -0.319708
C      -2.147454   -0.934423    0.693050
N      -2.390689    0.517078    0.686678
H       1.189134    1.814029   -0.841509
H      -0.233198    1.748496   -1.660083
H       0.372228   -1.817884   -1.175005
H       1.638977   -0.613724   -1.580476
H       2.038662   -1.718416    0.959365
H      -1.915044   -0.057324   -1.328576
H      -2.997912   -1.546017    0.404561
H      -1.538909   -1.351074    1.490130
H      -1.825242    0.954701    1.413066
