22

C       0.728556    0.934219   -0.860657
C       1.141993   -0.525736   -0.934912
O       1.596370   -0.930449    0.340536
C       2.021630   -2.276385    0.378640
C       2.528700   -2.542896    1.776405
C       1.775926   -3.182296    2.874020
C       0.841448   -4.287867    2.389802
C       2.083911   -4.910191    1.706013
N       3.008425   -3.851850    2.260424
H       1.575816    1.557411   -0.560930
H       0.370192    1.279292   -1.835104
H      -0.071882    1.069457   -0.127780
H       0.291841   -1.153549   -1.253062
H       1.940054   -0.665102   -1.684212
H       1.194872   -2.944604    0.095313
H       2.836842   -2.444852   -0.347379
H       3.208063   -1.757131    2.101008
H       1.792959   -2.783105    3.883608
H       0.460850   -4.906516    3.204212
H      -0.002531   -3.982215    1.763580
H       2.366907   -5.879681    2.120045
H       2.085241   -4.986645    0.614301
