22

C      -0.250846    1.534703    0.214141
C      -0.014832    0.046229    0.032896
C       1.320072   -0.462959   -0.607649
N       1.978935    0.029550    0.661028
C       3.356036   -0.280396    1.033625
C       0.771671   -0.759009    1.121691
C       1.024699   -1.872163    0.050535
C      -0.086834   -2.785803   -0.472575
O       2.126621   -2.699621    0.370067
H       0.647227    2.028865    0.583757
H      -0.543439    1.993502   -0.737284
H      -1.069399    1.708353    0.922074
H      -0.917696   -0.439191   -0.333207
H       1.725070   -0.236694   -1.597895
H       3.687767   -1.310657    0.891798
H       4.008581    0.388783    0.459791
H       3.479910   -0.014884    2.089993
H       0.530272   -0.886085    2.179922
H      -1.014499   -2.282567   -0.741361
H       0.266786   -3.308715   -1.371500
H      -0.311014   -3.546510    0.281743
H       2.284319   -3.284997   -0.377998
