21

C       0.007399    1.376308   -0.329464
C       0.014411   -0.098796    0.111862
C       0.738765   -0.278301    1.451082
C      -1.383238   -0.652198    0.140508
C      -2.099181   -1.164937    1.190730
N      -3.326813   -1.519154    0.664620
C      -3.309521   -1.213142   -0.666409
C      -4.465950   -1.456844   -1.578086
N      -2.152721   -0.690178   -1.008383
H       1.029167    1.751779   -0.451582
H      -0.522300    1.488125   -1.278371
H      -0.497573    2.000788    0.416455
H       0.566888   -0.662335   -0.653203
H       0.233506    0.278177    2.249267
H       0.781349   -1.331314    1.747588
H       1.765038    0.096187    1.387756
H      -1.865821   -1.313485    2.231301
H      -4.090970   -1.931594    1.172474
H      -5.359224   -0.904425   -1.263723
H      -4.192885   -1.126479   -2.580902
H      -4.734191   -2.518808   -1.625351
