18

C      -0.106649    1.392052   -0.320803
C       0.104160   -0.072837   -0.000866
C       1.318167   -0.762941   -0.592514
C       1.245516   -0.460651    0.892270
N      -1.170351   -0.739038    0.184653
C      -1.813529   -1.333115   -0.983948
C      -1.280781   -2.186972    0.114187
H       0.848565    1.917336   -0.409571
H      -0.646701    1.510618   -1.267010
H      -0.697578    1.871456    0.465738
H       1.253514   -1.801180   -0.898204
H       1.985472   -0.170122   -1.209308
H       1.875957    0.322916    1.299031
H       1.092261   -1.301211    1.561016
H      -2.880628   -1.155540   -1.084029
H      -1.256406   -1.340039   -1.919321
H      -0.398283   -2.783895   -0.105477
H      -1.951911   -2.634494    0.842378
