20

C       0.070528    1.459618   -0.319110
N       0.038682    0.025028   -0.033961
C      -1.045480   -0.500568    0.888665
C      -0.132339   -1.741286    1.083412
C       0.796796   -0.491189    1.190247
C       2.288997   -0.431290    1.320899
C      -0.307055    0.119388    2.087447
C      -0.455856    1.254170    2.985396
O      -0.522837   -0.109595    3.460981
H       1.034566    1.700643   -0.779164
H      -0.707600    1.680765   -1.057161
H      -0.074895    2.128316    0.540638
H      -2.101818   -0.465474    0.621962
H      -0.278812   -2.326537    1.991686
H       0.017222   -2.342041    0.185667
H       2.771222   -0.981590    0.507260
H       2.648512    0.603169    1.295044
H       2.602660   -0.873452    2.271722
H       0.419126    1.814591    3.313075
H      -1.395409    1.804096    3.025139
