20

C      -0.225238    1.070646   -0.296766
C       0.337567   -0.285470    0.070234
C       1.837372   -0.535957    0.164015
O       2.738527    0.531828    0.053640
C       0.997770   -0.556187    1.415887
C       1.160780    0.555275    2.430628
N       0.744933   -1.816310    2.094082
C       0.590480   -3.048615    1.550447
O       0.655261   -3.332107    0.369653
H       0.479951    1.876607   -0.079825
H      -0.449230    1.110036   -1.368574
H      -1.157342    1.281113    0.238699
H      -0.205858   -1.134059   -0.329307
H       2.194889   -1.489684   -0.211207
H       2.833910    0.738982   -0.882070
H       1.495601    1.473956    1.953566
H       0.218511    0.753223    2.954597
H       1.918192    0.280950    3.174320
H       0.654480   -1.759161    3.096432
H       0.390563   -3.806794    2.334980
