23

C       0.101995    1.320924   -0.154388
C       1.424002    0.607098    0.026199
C       2.008291    0.581916    1.428517
C       0.822261    0.159674    2.338553
C      -0.108399   -0.702279    1.441876
C       0.126188   -0.180288    0.034388
C       0.076187   -1.034217   -1.221333
C       1.134487   -0.401819   -2.166416
C       2.192865    0.249981   -1.234693
H      -0.266502    1.936761    0.659181
H      -0.142096    1.713046   -1.136018
H       2.805497   -0.171880    1.467044
H       2.451753    1.531178    1.749897
H       1.153835   -0.377557    3.231514
H       0.286836    1.045891    2.693843
H       0.192306   -1.757301    1.483538
H      -1.152157   -0.655307    1.772641
H       0.361877   -2.062194   -0.962729
H      -0.912014   -1.087180   -1.692179
H       1.575152   -1.135230   -2.847489
H       0.667371    0.361547   -2.796786
H       2.691890    1.099329   -1.714927
H       2.975032   -0.476781   -0.979227
