23

C      -0.241231    1.444745   -0.857525
C      -0.336367   -0.061008   -1.035933
O      -1.308839   -0.550568   -0.122543
C      -1.519643   -1.953426   -0.127713
C      -1.652955   -2.418017    1.326929
C      -0.397500   -2.149410    2.158252
C      -2.795138   -2.306082   -0.930465
C      -2.702843   -2.060335   -2.364460
C      -2.633161   -1.882858   -3.551850
H       0.508331    1.861329   -1.537240
H      -1.204119    1.917482   -1.071226
H       0.042408    1.695487    0.168902
H      -0.617471   -0.310449   -2.066995
H       0.638470   -0.534084   -0.833745
H      -0.658752   -2.459252   -0.590781
H      -2.511961   -1.901021    1.773321
H      -1.889542   -3.488976    1.334043
H       0.466173   -2.695275    1.761752
H      -0.156983   -1.083399    2.150108
H      -0.538932   -2.461241    3.197360
H      -3.035545   -3.364021   -0.764422
H      -3.623926   -1.724288   -0.508505
H      -2.573975   -1.719935   -4.599306
