19

C       0.003231    1.421126   -0.292042
C       0.001247   -0.017827   -0.065218
C       0.034459   -1.208343    0.118895
C       0.003933   -2.651264    0.351537
C      -1.396762   -3.210787    0.132988
O      -2.373926   -2.646682    0.957591
C      -1.815653   -3.659671   -1.256271
C      -1.581887   -4.663683   -0.139445
O      -0.434999   -5.463444   -0.148644
H       0.991791    1.768533   -0.612172
H      -0.713437    1.704838   -1.070728
H      -0.260951    1.971039    0.618016
H       0.713765   -3.171206   -0.298230
H       0.307907   -2.867400    1.383685
H      -2.360427   -1.695285    0.789868
H      -2.840018   -3.471257   -1.557094
H      -1.074397   -3.612899   -2.047401
H      -2.465842   -5.115768    0.309328
H      -0.534616   -6.116189   -0.849396
