18

C      -0.006045    1.572838   -0.020000
O       1.258343    2.206017   -0.076727
C       2.046311    1.687543   -1.131763
C       2.170038    0.174805   -1.068525
C       2.462783   -0.538945    0.243523
C       1.109128   -0.614602    0.976795
C       1.443520   -1.574424   -0.124927
N       0.841621   -0.575590   -1.133004
C       0.110084    0.059676    0.047349
H      -0.508719    1.959950    0.872278
H      -0.615281    1.841703   -0.900389
H       1.618016    1.966516   -2.110169
H       3.031240    2.157799   -1.045323
H       2.803621   -0.188629   -1.884019
H       3.397090   -0.667455    0.775556
H       1.057867   -0.798195    2.042708
H       1.448166   -2.649657   -0.227289
H      -0.883750   -0.394715    0.113425
