21

O      -0.255397    0.035193   -0.401009
C       0.091111    1.141847   -0.079688
C       1.440633    1.752899   -0.382092
C       1.306364    3.108217   -1.094296
C       2.654074    3.786130   -1.302871
O       2.429521    5.023818   -1.951825
C       3.601575    5.729257   -2.215893
C       4.394981    5.401291   -3.456120
C       3.564971    6.668618   -3.375201
H      -0.596466    1.815790    0.484992
H       1.954580    1.899149    0.580075
H       2.023064    1.036883   -0.969438
H       0.823923    2.974743   -2.068974
H       0.662708    3.778999   -0.512643
H       3.154740    3.946885   -0.332634
H       3.319180    3.150437   -1.908544
H       4.154068    6.028203   -1.323618
H       5.476203    5.477332   -3.422821
H       4.011794    4.605520   -4.085134
H       2.643924    6.691602   -3.946140
H       4.069869    7.623547   -3.284381
