13

N      -0.006131    1.274365   -0.266657
C       0.008498    0.042927   -0.018976
O       1.094165   -0.729038    0.267231
C       0.640539   -2.064503    0.504914
O      -0.613282   -2.177047   -0.113081
C      -1.210666   -0.882764   -0.005557
C      -2.006073   -0.728548    1.212685
C      -2.652447   -0.621467    2.219131
H       0.931169    1.674725   -0.209429
H       1.334108   -2.768458    0.040014
H       0.580603   -2.227441    1.590913
H      -1.826512   -0.721254   -0.892994
H      -3.230552   -0.516734    3.104387
