13

O      -0.141828    1.359884    0.114713
N       0.057516   -0.038198    0.095277
C      -1.065954   -0.664136   -0.046651
C      -2.386587   -0.037156   -0.173272
N      -3.503997   -0.672024   -0.314565
N      -3.443019   -2.023949   -0.347245
C      -2.271023   -2.717235   -0.239522
F      -2.438505   -4.030251   -0.296779
C      -1.082066   -2.113336   -0.091338
H       0.756940    1.685138    0.223090
H      -2.460339    1.041481   -0.149826
H      -4.319112   -2.506598   -0.458734
H      -0.170192   -2.686893   -0.008334
