21

O      -0.074359    1.046757   -1.066786
C      -0.104811    0.252015    0.131592
C      -1.451486   -0.421502    0.201311
C      -1.826074   -1.327685   -0.953882
O      -0.888543   -1.532390   -1.967811
C      -1.550465   -1.918476    0.395995
C      -0.444122   -2.944624    0.666418
C      -1.547823   -3.908517    1.199397
C      -2.552533   -2.718001    1.235055
H       0.793246    1.459161   -1.131195
H       0.696399   -0.497505    0.106251
H       0.057237    0.886676    1.014082
H      -2.252874    0.182710    0.618536
H      -2.863628   -1.306920   -1.291008
H      -0.540105   -0.657525   -2.191171
H       0.123515   -3.269034   -0.208090
H       0.255765   -2.634740    1.449733
H      -1.826251   -4.663717    0.460794
H      -1.346610   -4.408190    2.149307
H      -2.683487   -2.308946    2.242443
H      -3.541236   -2.884727    0.797354
