15

C      -0.017122    1.522937    0.051634
C      -0.001254    0.019450    0.020529
C       0.069459   -0.653180   -1.207954
O       0.123598    0.050874   -2.369480
C       0.081738   -2.042553   -1.189840
F       0.149683   -2.675976   -2.373700
C       0.026072   -2.739940    0.001555
C      -0.042078   -1.980585    1.165497
N      -0.055549   -0.645433    1.178925
H       0.885138    1.936846   -0.411861
H      -0.868518    1.920528   -0.511524
H      -0.078793    1.859806    1.086755
H       0.167526   -0.578447   -3.099963
H       0.035903   -3.822775    0.010793
H      -0.088011   -2.472606    2.132931
