20

C      -0.023754    1.664620   -0.714819
C      -0.006188    0.227248   -0.232024
C      -1.294891   -0.539960   -0.438790
C      -2.432811   -0.007938    0.443170
N      -3.683636   -0.371765    0.038622
O      -2.245699    0.666582    1.439289
C       1.316081   -0.524100   -0.306504
C       0.768676   -0.100380    1.022888
O       1.447638    0.904262    1.713001
H       0.900087    2.176447   -0.437495
H      -0.127433    1.711997   -1.805375
H      -0.858428    2.214417   -0.268226
H      -1.603180   -0.524417   -1.492973
H      -1.155750   -1.597785   -0.179731
H      -3.844368   -0.930690   -0.780359
H      -4.470444   -0.096328    0.602977
H       1.322156   -1.580715   -0.554347
H       2.168708    0.032150   -0.680500
H       0.350582   -0.880998    1.658539
H       0.778084    1.410426    2.188649
