20

C       1.227953    0.870453   -0.781434
C       0.750690   -0.434158   -0.188690
N       1.778827   -1.413054    0.207100
C       0.907292   -0.830523    1.239803
C       1.565935    0.032646    2.305143
N       0.629238    0.857922    3.066330
C       2.363090   -0.872819    3.268843
C       3.154857   -0.125085    4.241861
N       3.802530    0.453027    5.004126
H       2.150261    1.214003   -0.308551
H       1.433556    0.746477   -1.849744
H       0.467050    1.651737   -0.676426
H      -0.136895   -0.838124   -0.675418
H       1.491559   -2.359979   -0.023048
H       0.117164   -1.468702    1.642545
H       2.281608    0.705428    1.824554
H       0.172804    1.523454    2.450248
H      -0.108727    0.280462    3.462324
H       1.676189   -1.535891    3.810758
H       3.030991   -1.510581    2.680861
