21

C      -0.032426    1.628755   -0.196618
C       0.023197    0.100635   -0.132891
O      -1.320564   -0.348114   -0.245628
C       1.163057   -0.672853   -0.896520
C       2.128912   -0.134717    0.205559
C       0.852973   -0.613471    0.977087
C       0.928875   -1.899139    0.079402
C      -0.213254   -2.892783   -0.098160
O       2.091212   -2.664000    0.387035
H       0.923494    2.137375   -0.086087
H      -0.447797    1.937265   -1.165524
H      -0.709015    1.994425    0.581964
H      -1.737700    0.152610   -0.953732
H       1.338263   -0.702173   -1.975137
H       3.022497   -0.724722    0.372915
H       2.348985    0.929056    0.210881
H       0.675015   -0.577255    2.053733
H       0.031871   -3.574934   -0.925108
H      -0.302503   -3.499257    0.809394
H      -1.166035   -2.423899   -0.313976
H       2.069364   -3.452493   -0.162866
