14

C       0.097667    1.451382    0.043161
N       0.011001   -0.011576    0.007564
C      -0.099418   -0.626755   -1.212401
O      -0.134494   -0.093957   -2.282510
O      -0.176366   -2.018264   -1.158856
C      -0.139131   -2.641192    0.038103
N      -0.037863   -2.102397    1.180563
C       0.046691   -0.703796    1.235696
N       0.151689   -0.034909    2.310386
H       1.031230    1.749475    0.523968
H       0.055764    1.814276   -0.980803
H      -0.729955    1.851197    0.632041
H      -0.209135   -3.718177   -0.084249
H       0.162608   -0.681910    3.097246
