23

C      -0.120286    1.634709   -0.069301
C       0.019880    0.110733    0.002224
C      -1.342511   -0.586314    0.072115
C      -1.329813   -2.138345    0.057865
C      -0.553235   -2.708442    1.269540
N      -2.735338   -2.567091   -0.015243
C      -2.997408   -4.002618   -0.053059
C      -0.663424   -2.596225   -1.182407
N      -0.120582   -2.954911   -2.137562
H       0.859683    2.118550   -0.117065
H      -0.686346    1.938307   -0.956435
H      -0.644143    2.028800    0.808841
H       0.567796   -0.248460   -0.876681
H       0.626059   -0.153980    0.876296
H      -1.862144   -0.282450    0.991532
H      -1.970501   -0.263467   -0.764715
H      -1.018672   -2.351273    2.194219
H      -0.569498   -3.800251    1.271073
H       0.492155   -2.391533    1.262378
H      -3.234145   -2.138526    0.757247
H      -4.074905   -4.153984   -0.162618
H      -2.511354   -4.437300   -0.931723
H      -2.664738   -4.565800    0.833398
