21

C      -0.207136    1.592834   -0.073282
C      -0.257638    0.076212   -0.270347
C       1.004668   -0.472473   -0.950729
C       0.952032   -1.978007   -1.150297
O       0.030461   -2.448433   -2.160086
C       1.424413   -2.659228   -2.384235
C       2.063613   -1.979593   -3.567224
C       0.951146   -2.753536    0.073644
C       0.969570   -3.378620    1.100654
H       0.642347    1.884720    0.554588
H      -0.104872    2.116307   -1.030668
H      -1.118219    1.959608    0.409289
H      -0.390087   -0.421093    0.697317
H      -1.127698   -0.193965   -0.879912
H       1.135204    0.016851   -1.919903
H       1.889167   -0.233756   -0.346637
H       1.728206   -3.699468   -2.250354
H       1.727842   -0.948239   -3.683851
H       3.154217   -1.988476   -3.467562
H       1.807804   -2.522040   -4.483591
H       0.978155   -3.937909    2.003486
