15

O       1.246132    1.656282    0.477880
C       0.332522    0.770764   -0.108201
C       0.854707    0.331512   -1.491653
C      -0.174041   -0.373627   -2.352740
O      -1.264667   -0.711741   -1.938769
C       0.231085   -0.626088   -3.723343
C       0.589877   -0.829865   -4.854031
C       0.091831   -0.415537    0.812678
O       0.668001   -0.501608    1.871676
H       1.477217    1.258151    1.333255
H      -0.647140    1.255645   -0.255435
H       1.212625    1.222273   -2.020525
H       1.734671   -0.317683   -1.389746
H       0.890337   -1.017280   -5.856760
H      -0.630687   -1.174072    0.465606
