12

F       0.030895    0.028125    0.003846
C      -0.016761    1.361170    0.010946
C      -1.186001    2.035358    0.029037
N      -1.257872    3.415692    0.036672
C      -0.123905    4.035995    0.025333
N       1.089752    3.426934    0.007006
C       1.269796    2.036371   -0.002057
N       2.452597    1.553438   -0.019407
H      -2.127999    1.496561    0.038340
H      -0.100530    5.122271    0.030332
H       1.941978    3.971937   -0.001142
H       2.410009    0.536273   -0.023833
