23

C      -0.046079    0.851491   -2.057124
C       0.034057   -0.265368   -1.038941
C       1.300579   -0.602265   -0.278632
C       2.601756    0.147252   -0.467500
C       0.110207   -0.015224    0.454785
C       0.135073    1.408940    1.044236
C      -0.665153    1.277736    2.316483
C      -1.114190    0.041422    2.516642
C      -0.704181   -0.903856    1.417421
H       0.572865    1.711380   -1.788907
H       0.284773    0.505405   -3.042843
H      -1.075754    1.212022   -2.163777
H      -0.569993   -1.129106   -1.312418
H       1.449087   -1.666173   -0.100424
H       2.450278    1.212100   -0.661388
H       3.234627    0.065352    0.423765
H       3.168497   -0.261323   -1.311747
H       1.154283    1.763420    1.250041
H      -0.309236    2.153417    0.369615
H      -0.837632    2.121427    2.976164
H      -1.709508   -0.278723    3.364958
H      -1.577618   -1.354568    0.924847
H      -0.110820   -1.743567    1.806648
