18

C      -0.084047    1.531318    0.229687
C       0.091214    0.059333   -0.067958
C       0.639842   -0.580373   -1.286474
N       1.349420   -0.702674    0.066433
C       2.464282    0.153953   -0.495664
C       1.878526    0.086066   -1.923372
O       2.556800   -0.800160   -2.794055
C       1.685302    1.345002   -2.749248
O       1.683283    2.465515   -2.308524
H       0.644240    2.172030   -0.264654
H      -1.079072    1.848038   -0.100297
H      -0.027388    1.696241    1.311281
H      -0.711696   -0.541956    0.359590
H       0.161315   -1.431312   -1.766344
H       2.555133    1.144908   -0.047421
H       3.419211   -0.370136   -0.421092
H       2.632761   -1.654683   -2.354448
H       1.542556    1.139015   -3.831783
