15

O      -0.147055    1.454635    0.060421
C       0.009397    0.050417    0.021318
C       0.723667   -0.401084   -1.259857
C       0.034872    0.154234   -2.493042
O       0.600373    0.738624   -3.377940
C       0.733724   -0.485593    1.277709
C       0.051577   -0.120518    2.516637
N      -0.491910    0.155376    3.497694
H       0.718749    1.869444   -0.033171
H      -1.014089   -0.341735    0.022960
H       1.770803   -0.077046   -1.271083
H       0.708978   -1.498116   -1.324596
H      -1.062674   -0.030057   -2.528925
H       0.814293   -1.577403    1.226950
H       1.758126   -0.093632    1.307144
