10

O      -0.043040   -0.034696   -0.000070
C      -0.007147    1.157218    0.008847
N       1.179636    1.924508    0.002184
C       1.278893    3.289945    0.011800
C       2.619385    3.530595   -0.000832
N       3.280386    2.323654   -0.017040
N       2.428264    1.359015   -0.015409
H      -0.893717    1.816667    0.023295
H       0.414172    3.931755    0.026021
H       3.153647    4.466136    0.000606
