17

C      -0.561832    1.661289    0.520611
N      -0.615313    0.248342    0.835390
C      -0.098887   -0.554260    0.004207
N      -0.091950   -1.918938    0.261291
C       0.259418   -2.883300   -0.669993
N       0.571959   -2.594438   -1.868292
C       0.289518   -4.323692   -0.161185
N       0.381861   -4.474726    1.197326
O       0.228469   -5.252078   -0.938068
H      -0.063246    1.886216   -0.435051
H      -1.579240    2.067746    0.484520
H      -0.036282    2.196799    1.320010
H       0.380963   -0.289911   -0.941935
H      -0.610578   -2.201608    1.079975
H       0.807661   -3.461515   -2.353844
H       0.778112   -3.734747    1.754842
H       0.533075   -5.417521    1.524957
