14

O      -0.229659    0.106799   -0.516959
C      -0.031883    1.180076   -0.015252
C       1.272135    1.935287   -0.087959
O       2.406009    1.175795   -0.525595
C       2.681424    2.087393   -1.610366
C       1.413990    2.927421   -1.294503
N       0.864017    2.475589   -2.562273
C       1.936832    1.657484   -2.909639
O       2.131837    0.919821   -3.828677
H      -0.833129    1.737347    0.525543
H       1.471596    2.431103    0.873011
H       3.712007    2.439035   -1.643046
H       1.379877    3.997851   -1.102347
H      -0.096582    2.427407   -2.874714
