23

C       0.048628    1.486394    0.218822
C      -0.065260   -0.033503    0.039893
C      -1.530740   -0.487341    0.078360
C       0.620669   -0.490782   -1.247107
C       2.160893   -0.319045   -1.372174
C       2.269427   -1.758052   -1.977763
C       0.803775   -2.015087   -1.492855
C       2.390476   -1.748459   -3.475480
O       3.211032   -2.360452   -4.110572
H       1.092375    1.816623    0.211758
H      -0.474105    2.014826   -0.587464
H      -0.396215    1.806317    1.166661
H       0.461565   -0.514717    0.878200
H      -2.104795   -0.023060   -0.732500
H      -1.620066   -1.573115   -0.029459
H      -2.006147   -0.205595    1.023474
H       0.116412   -0.026297   -2.104180
H       2.531432    0.505037   -1.987770
H       2.653811   -0.268108   -0.396944
H       3.044982   -2.407724   -1.569314
H       0.796047   -2.589868   -0.562155
H       0.126996   -2.499895   -2.201585
H       1.634785   -1.106583   -3.991487
