16

C       0.014178    1.596365    0.068070
C       0.256685    0.096949   -0.122167
C       0.665498   -0.597776    1.172360
N      -0.398763   -0.703939    2.216857
C      -0.188824   -2.165352    2.400919
C       0.735822   -2.135839    1.173142
O       1.259018   -2.956164    0.481100
H       0.922279    2.106797    0.408797
H      -0.302191    2.067026   -0.867497
H      -0.769813    1.766679    0.812600
H      -0.653419   -0.381553   -0.501357
H       1.044147   -0.076443   -0.865385
H       1.611083   -0.172187    1.546075
H      -0.211607   -0.159479    3.049945
H       0.346717   -2.463442    3.313193
H      -1.095834   -2.773672    2.314524
