13

O      -0.088730    1.433666    0.033152
C       0.017258    0.032307    0.028009
C       0.667170   -0.526694   -1.269918
C      -0.066260   -0.131283   -2.458090
C      -0.684488    0.193673   -3.442594
C      -1.380567    0.560511   -4.558727
N      -1.971741    0.871549   -5.508775
C       0.764906   -0.468072    1.199778
N       1.381866   -0.839964    2.102895
H       0.794802    1.817459    0.085474
H      -1.009825   -0.340824    0.091745
H       1.703418   -0.170717   -1.331703
H       0.716020   -1.620429   -1.203497
