17

C      -0.027468    1.506727   -0.050493
C       1.357848    2.164270    0.006851
C       2.099157    2.042796    1.308957
C       2.011600    1.072584    2.231095
C       1.224671   -0.158809    2.232054
C       0.380374   -0.646849    1.311027
C      -0.042105   -0.026591    0.008502
H      -0.643279    1.900842    0.766291
H      -0.512485    1.815952   -0.983775
H       1.986542    1.771936   -0.807334
H       1.241659    3.232299   -0.218920
H       2.792303    2.855678    1.517102
H       2.638389    1.190771    3.112854
H       1.381295   -0.776268    3.114405
H      -0.066020   -1.617097    1.520560
H      -1.060250   -0.370117   -0.216279
H       0.577569   -0.433143   -0.805622
