15

O      -0.020596    1.418825   -0.039006
C      -0.007382    0.001927   -0.073988
C      -1.412538   -0.507748    0.027910
C      -2.464905    0.311398    0.131642
O      -3.751105   -0.154642    0.225143
C      -3.901096   -1.498451    0.206821
N      -2.989048   -2.377038    0.113027
C      -1.642152   -1.954200    0.013422
N      -0.662394   -2.769791   -0.084421
H       0.886299    1.727081   -0.112297
H       0.438709   -0.387000   -1.001925
H       0.580913   -0.428807    0.750493
H      -2.416724    1.389509    0.152258
H      -4.951092   -1.765197    0.285843
H      -1.021948   -3.726300   -0.077030
