16

C      -0.112812    1.526690    0.023802
C       0.104130    0.051636    0.021980
O      -0.828809   -0.815874    0.661800
C       0.548422   -0.919279    1.025562
C       1.297610   -1.754042   -0.059189
N       0.329358   -2.134228   -1.122147
C       0.829539   -0.772662   -1.115141
C       2.646851   -2.297707    0.038551
O       3.307697   -2.306726    1.052126
H       0.809333    2.054612   -0.240244
H      -0.884079    1.806446   -0.702448
H      -0.434940    1.858404    1.013913
H       0.832936   -0.822165    2.064890
H       0.841886   -2.657813   -1.834514
H       1.411916   -0.354403   -1.927264
H       3.043684   -2.699991   -0.924185
