21

C      -0.162867    1.573792   -0.201822
C      -0.020529    0.053819   -0.047988
C      -1.385475   -0.535613    0.262349
C      -1.457660   -0.855790    1.563858
C      -0.122741   -0.724359    2.314539
C       0.790211   -0.612084    1.107477
C       2.091967   -0.023906    0.491614
C       1.249156   -0.606237   -0.718016
C       1.020179   -1.844938    0.164558
H       0.773484    2.070939   -0.466715
H      -0.877327    1.790025   -1.004902
H      -0.557374    2.040043    0.707996
H      -2.233902   -0.536769   -0.414950
H      -2.361139   -1.185283    2.067605
H      -0.119327    0.162059    2.963651
H       0.087737   -1.591675    2.950199
H       2.238732    1.054692    0.547979
H       3.024137   -0.554043    0.704915
H       1.542423   -0.585812   -1.770410
H       1.904072   -2.448334    0.389173
H       0.156310   -2.468767   -0.064118
