19

C       0.044442    1.625087    0.004301
C       0.003070    0.086086    0.000385
C      -1.382296   -0.487319    0.016833
C      -2.167787   -0.786620    1.098032
N      -1.983374   -0.636773    2.455021
O      -3.356299   -1.265058    0.714327
N      -3.394828   -1.296629   -0.699346
C      -2.227357   -0.833937   -1.080764
C      -1.920287   -0.735785   -2.541396
H       1.076203    1.991687   -0.006170
H      -0.469024    2.032905   -0.871979
H      -0.452651    2.027359    0.892498
H       0.539194   -0.287039   -0.880407
H       0.569314   -0.288679    0.864636
H      -1.015547   -0.643275    2.743714
H      -2.553391   -1.257523    3.013433
H      -1.719761    0.299919   -2.835544
H      -1.033516   -1.325724   -2.797661
H      -2.765089   -1.106283   -3.125127
