21

C       0.165297    1.544680   -0.170735
C      -0.000913    0.044138    0.067100
O       0.549605   -0.683324   -1.038386
C       1.434888   -1.707018   -0.583982
C       2.751511   -1.624734   -1.357711
C       1.543093   -1.480313    0.907994
C       2.424540   -2.308664    1.782246
O       2.216723   -1.952310    3.136840
C       0.726556   -0.496201    1.267420
H       1.225669    1.808856   -0.219234
H      -0.309573    1.831284   -1.113496
H      -0.302881    2.116022    0.637793
H      -1.080334   -0.179249    0.137217
H       0.978409   -2.694296   -0.783512
H       3.264130   -0.681878   -1.144647
H       3.414329   -2.456125   -1.093928
H       2.553484   -1.676502   -2.431881
H       2.204570   -3.377744    1.607942
H       3.478176   -2.162035    1.487447
H       2.832542   -2.456327    3.676106
H       0.577281   -0.131869    2.274567
