15

C       0.142836    1.541348   -0.121115
C       0.066102    0.026041    0.014988
O       0.734269   -0.472585    1.146568
C      -1.420768   -0.485777    0.020967
O      -2.031272   -0.014234   -1.157610
C      -1.429695   -1.965361    0.068243
N      -1.468954   -3.118919    0.041448
C      -2.102467    0.032883    1.233277
N      -2.610529    0.482932    2.168005
H       1.193544    1.839538   -0.153501
H      -0.351534    1.879675   -1.033497
H      -0.333272    2.037134    0.732404
H       0.528302   -0.456623   -0.851490
H       0.500048    0.069415    1.909859
H      -2.920436   -0.382514   -1.228723
