19

C      -0.162291    1.578585    0.004067
C       0.014070    0.066912    0.003583
C       1.235152   -0.589048   -0.696205
C       2.135029   -0.210279    0.512400
O       3.134401   -1.197646    0.727747
C       2.408128   -2.413530    0.537616
C       1.018236   -1.863032    0.210880
O      -0.029735   -2.755832    0.018701
C       0.782179   -0.643034    1.153225
H       0.758179    2.117028    0.247216
H      -0.499435    1.927748   -0.978337
H      -0.922699    1.877546    0.734081
H      -0.928102   -0.431435   -0.238491
H       1.507845   -0.573774   -1.753594
H       2.551665    0.783804    0.644024
H       2.844818   -2.999236   -0.283400
H       2.416441   -3.022078    1.450270
H       0.158177   -3.285980   -0.763389
H       0.534543   -0.687771    2.214936
