21

C      -1.528897   -0.728823   -0.435019
O      -0.202606   -0.292512   -0.178588
C       0.756250   -0.756831   -1.102289
C       0.680815   -0.020043   -2.425139
O       0.791486    1.378833   -2.237259
C       2.124494   -1.057953   -0.590691
C       2.073046   -1.660770    0.816940
C       1.154297   -2.804729    0.284713
C       1.202131   -2.188771   -1.122086
H      -1.957291   -0.256176   -1.329252
H      -1.574701   -1.817979   -0.561370
H      -2.128943   -0.441834    0.431824
H       1.504213   -0.333043   -3.075301
H      -0.257057   -0.274965   -2.946061
H       0.291431    1.576559   -1.435911
H       2.995123   -0.605235   -1.051384
H       3.044244   -2.031654    1.150294
H       1.651377   -1.014031    1.589472
H       1.646468   -3.778658    0.321890
H       0.165650   -2.896925    0.742713
H       1.265954   -2.751871   -2.047319
