21

C       0.047967    1.747093   -0.713986
O      -0.320361    0.421700   -0.419042
C       0.596570   -0.565808   -0.900130
C       1.771464   -0.723341    0.031778
C       2.339373   -1.889927    0.333002
C       1.874643   -3.213309   -0.208749
C       0.457552   -3.175692   -0.752877
C      -0.663584   -2.626915    0.090877
C      -0.177904   -1.848926   -1.106730
H       0.987399    2.050850   -0.226928
H       0.161954    1.907150   -1.798522
H      -0.752617    2.394211   -0.345921
H       0.972615   -0.228692   -1.883478
H       2.166400    0.195377    0.456994
H       3.196973   -1.910478    1.001601
H       2.563304   -3.537669   -1.003350
H       1.956090   -3.979897    0.574189
H       0.204322   -4.010584   -1.399417
H      -1.636809   -3.100253    0.027480
H      -0.415651   -2.234951    1.071084
H      -0.835897   -1.827376   -1.969509
