22

C       0.028670    0.736448   -2.201972
C       0.070672   -0.346526   -1.144777
C       1.285160   -0.599039   -0.267584
C       2.566982    0.196621   -0.385728
C       0.025232   -0.014304    0.322085
C      -0.110451    1.366710    0.987157
C      -0.720355    0.658935    2.233532
C      -0.837713   -0.661015    1.415736
H       0.528907    1.652090   -1.874870
H       0.510723    0.409451   -3.130295
H      -1.006595    1.002565   -2.444311
H      -0.477338   -1.245170   -1.424201
H       1.450666   -1.647229   -0.022750
H       2.382085    1.252109   -0.602279
H       3.142893    0.151631    0.545891
H       3.204308   -0.195993   -1.186174
H       0.810654    1.932207    1.154144
H      -0.824019    2.021729    0.476225
H      -0.007548    0.578907    3.057948
H      -1.651442    1.076209    2.623271
H      -1.861642   -0.868400    1.086459
H      -0.438533   -1.565153    1.885430
