23

C      -0.065092    1.563472   -0.041278
C       0.010994    0.030549   -0.020003
C       0.537724   -0.538339   -1.351847
C       0.799773   -2.045116   -1.260053
C       1.914428   -2.353163   -0.248425
C       1.687401   -1.691283    1.108442
C       2.258459   -0.310389    1.376595
O       2.968710    0.361005    0.373223
C       0.777865   -0.472184    1.200516
H       0.934232    1.994739   -0.149674
H      -0.683783    1.913594   -0.875199
H      -0.502222    1.952494    0.884978
H      -1.012928   -0.355252    0.097023
H      -0.198396   -0.327395   -2.136818
H       1.462634   -0.023258   -1.632625
H      -0.122733   -2.557617   -0.954232
H       1.070892   -2.446972   -2.243043
H       2.002854   -3.434983   -0.107893
H       2.871056   -2.019156   -0.672168
H       1.677870   -2.366553    1.958860
H       2.619144   -0.105519    2.384811
H       3.845506   -0.033730    0.311085
H       0.212720   -0.375110    2.124574
