24

C      -1.058255   -0.162127    0.628480
C      -1.092654   -1.246065   -0.451407
C      -0.829797   -2.633758    0.163344
O      -2.395071   -1.235963   -1.025566
C      -0.035423   -0.986092   -1.534091
N      -0.439615   -1.362088   -2.901878
C      -0.081511    0.046474   -2.611651
C      -1.202591    1.058791   -2.748927
C       1.252026    0.535823   -3.148111
H      -0.076634   -0.122343    1.111504
H      -1.275223    0.818798    0.199238
H      -1.809403   -0.374116    1.395172
H      -1.618203   -2.871680    0.882541
H      -0.836333   -3.402670   -0.616304
H       0.136492   -2.674969    0.678388
H      -2.278045   -1.598945   -1.918118
H       0.967904   -1.273500   -1.220286
H       0.306313   -1.841613   -3.398287
H      -2.134084    0.680685   -2.330903
H      -0.940521    1.988068   -2.230522
H      -1.358264    1.303755   -3.806071
H       1.171767    0.785595   -4.212754
H       1.578977    1.439837   -2.622901
H       2.035735   -0.220548   -3.033818
