13

N       0.288814    0.450253    1.056186
C      -0.050920    0.200819   -0.241533
O       0.589530    0.596642   -1.195574
C      -1.255881   -0.605314   -0.387440
C      -2.245965   -1.271212   -0.561885
C      -3.434090   -2.042415   -0.798093
C      -3.527606   -3.458219   -0.384421
O      -4.200770   -2.445080    0.348266
H       1.071424    1.059192    1.231884
H      -0.314700    0.188272    1.816193
H      -4.037428   -1.719934   -1.645488
H      -4.161846   -4.130550   -0.960181
H      -2.677869   -3.917524    0.116375
