19

C       0.049259    1.476045   -0.060992
O       1.494814    1.385612   -0.005986
C       1.442268   -0.021514    0.352939
C       1.706667   -1.006718   -0.758263
C       0.639095   -2.112598   -0.682389
C      -0.193419   -2.331597    0.595809
C      -0.951437   -0.981114    0.808905
C      -0.078680   -0.043019   -0.002206
C       0.300625   -0.798111   -1.303820
H      -0.350586    1.998542    0.820248
H      -0.303876    1.979683   -0.968199
H       1.850200   -0.187539    1.356133
H       2.631204   -1.162158   -1.303770
H       0.837707   -2.962067   -1.326413
H      -0.886959   -3.166319    0.458299
H       0.432823   -2.576732    1.459945
H      -1.971411   -1.036395    0.410468
H      -1.017955   -0.698704    1.864300
H      -0.053342   -0.612126   -2.309336
