19

C      -0.232610    1.431228   -0.222624
C       0.055428   -0.039316    0.007750
O       0.723218   -0.540798   -1.170570
C       1.060801   -1.837857   -1.150887
O       0.838489   -2.571630   -0.201951
C       1.696968   -2.272211   -2.406861
C       2.800117   -3.334252   -2.302226
C       1.463911   -3.742097   -2.810445
O       0.609752   -4.555997   -2.094093
H       0.693395    1.990376   -0.383073
H      -0.875486    1.571291   -1.096063
H      -0.741292    1.849616    0.650806
H       0.702103   -0.201394    0.875397
H      -0.859146   -0.618487    0.167260
H       1.771309   -1.521397   -3.182676
H       3.632371   -3.242065   -2.991031
H       3.059537   -3.641444   -1.294727
H       1.355667   -3.912466   -3.876773
H       0.585816   -4.215692   -1.183455
