14

C      -0.011148    1.516749   -0.094641
C      -0.019281    0.023412    0.172880
O      -0.063996   -0.474720    1.267853
N       0.029826   -0.736605   -1.003622
C       0.037032   -2.100177   -1.128370
N       0.084407   -2.727636   -2.274039
C       0.069527   -4.030518   -1.853153
N       0.017660   -4.215648   -0.564237
O      -0.004873   -2.889606   -0.060262
H       0.898050    1.812499   -0.628639
H      -0.870132    1.808597   -0.707993
H      -0.054997    2.038789    0.859967
H       0.065147   -0.260174   -1.892605
H       0.098379   -4.870513   -2.532287
