18

C      -0.186059    1.626007   -0.055181
C      -0.067088    0.109863   -0.010706
C       1.153042   -0.584480   -0.680132
O       1.473372   -0.700164   -2.015860
C       2.122508   -0.275064    0.529616
N       2.536391   -1.701229    0.745802
C       1.111014   -1.801483    0.289342
C       0.702222   -0.548761    1.144083
O       0.331753   -0.505202    2.463309
H       0.771569    2.113970    0.157807
H      -0.526751    1.966948   -1.039420
H      -0.909386    1.984010    0.684052
H      -1.025207   -0.375074   -0.233598
H       1.597999    0.182869   -2.380840
H       2.790065    0.571994    0.691627
H       3.165525   -2.002553   -0.002562
H       0.572490   -2.741864    0.166210
H       0.992232   -1.003020    2.962474
