18

C       0.081553    1.512283   -0.308854
C      -0.022340    0.074518    0.208159
C      -1.433531   -0.495556    0.085283
C      -1.863193   -1.091577   -1.236545
C      -1.620493   -2.021073   -0.065217
C      -0.478334   -2.889767   -0.054260
N       0.442765   -3.590237   -0.041508
C      -2.441834    0.162801    0.875043
C      -3.270454    0.721565    1.544081
H       1.101946    1.888132   -0.192746
H      -0.180976    1.572051   -1.370272
H      -0.590712    2.177048    0.241212
H       0.667015   -0.574456   -0.341441
H       0.281208    0.031145    1.259947
H      -2.890406   -0.963252   -1.554204
H      -1.127449   -1.097636   -2.032575
H      -2.497252   -2.434332    0.419939
H      -4.003462    1.214851    2.133421
