21

C      -0.162687    1.579709   -0.117875
C      -0.084902    0.051576   -0.129380
C       0.904242   -0.491961   -1.168926
O       2.230324   -0.011952   -0.956536
C       0.886271   -1.996243   -1.220902
C       1.485072   -3.009126   -0.221533
C       1.635351   -4.018631   -1.414502
C       1.027998   -2.951243   -2.333165
O      -0.265904   -2.625105   -1.799322
H       0.823717    2.019111    0.053520
H      -0.531144    1.959633   -1.077029
H      -0.839258    1.935094    0.664830
H       0.211127   -0.319251    0.863475
H      -1.069242   -0.383267   -0.336666
H       0.619650   -0.122205   -2.161387
H       2.463894   -0.196561   -0.039986
H       2.454098   -2.700986    0.178848
H       0.823851   -3.303698    0.596579
H       2.679566   -4.242355   -1.643905
H       1.066489   -4.948700   -1.346838
H       1.177094   -2.787760   -3.394611
