20

C      -0.075540    1.476911    0.027781
C      -0.014832   -0.030121   -0.031882
C       0.273064   -0.703173   -1.371857
C       0.742308   -2.104688   -1.016759
C       1.102344   -2.155673    0.433187
C       0.636097   -0.861819    1.065852
C      -0.874240   -0.848880    0.903361
C      -1.290453   -2.220402    0.395201
N      -0.071235   -2.898166   -0.079004
H       0.855838    1.928193   -0.333859
H      -0.894417    1.866966   -0.588451
H      -0.239954    1.825568    1.052516
H      -0.603118   -0.709886   -2.033465
H       1.072057   -0.171445   -1.903691
H       1.251726   -2.692570   -1.775807
H       1.925312   -2.726220    0.848095
H       1.145753   -0.424499    1.914539
H      -1.506374   -0.325089    1.614084
H      -1.724982   -2.820485    1.202589
H      -2.026250   -2.176784   -0.416595
