17

O      -0.737421    0.445088    0.041664
C      -0.208531    1.524965    0.074037
C       1.264643    1.777995   -0.147678
C       1.502392    2.794820   -1.268636
C       2.923166    3.337043   -1.296033
O       3.733063    3.094391   -0.432264
C       3.282165    4.250602   -2.467217
C       3.881809    5.561931   -1.972703
O       3.577986    6.638568   -2.410252
H      -0.802608    2.447743    0.280938
H       1.689096    2.182611    0.780524
H       1.764294    0.828888   -0.354327
H       1.269550    2.369680   -2.253322
H       0.832551    3.663132   -1.167507
H       4.067469    3.735500   -3.037705
H       2.443434    4.457568   -3.134623
H       4.629915    5.437073   -1.163583
