14

O       0.020855    1.432615    0.009619
C       0.001405    0.010957    0.002591
C      -1.378589   -0.456288    0.012581
C      -2.509455   -0.871504    0.020620
C      -3.839361   -1.348246    0.030132
C      -5.017391   -0.627378    0.040958
N      -5.978101   -1.575254    0.046547
N      -5.451682   -2.816791    0.039850
N      -4.161952   -2.687622    0.029984
H       0.943823    1.706041    0.002719
H       0.508856   -0.393247   -0.888857
H       0.524653   -0.402235    0.880680
H      -5.223635    0.428714    0.044789
H      -6.979505   -1.463516    0.054687
