18

C      -0.251947    1.283506   -0.553067
O      -0.313473   -0.123091   -0.540282
C      -1.023678   -0.612074    0.582433
C      -1.061110   -2.067587    0.562252
C      -1.096534   -3.270635    0.573849
C      -1.157058   -4.725630    0.559058
C      -2.182052   -5.264962   -0.444761
O      -2.143648   -6.678865   -0.353347
H       0.308122    1.574769   -1.444406
H      -1.254816    1.738366   -0.597965
H       0.263052    1.680341    0.336763
H      -0.548639   -0.263255    1.516609
H      -2.052269   -0.209479    0.587922
H      -0.174602   -5.146332    0.312723
H      -1.414087   -5.105935    1.555361
H      -3.177949   -4.866754   -0.199275
H      -1.923294   -4.913169   -1.454308
H      -2.766842   -7.039834   -0.990150
