14

C       0.039819    1.440861   -0.264405
C       0.053375   -0.023595    0.202918
O       0.572829   -0.149705    1.509312
C      -1.319766   -0.633827    0.089306
N      -2.037344   -0.896482    1.147175
O      -3.226711   -1.394042    0.691305
N      -3.247870   -1.444157   -0.671172
C      -2.092009   -0.981825   -1.057585
H       1.046882    1.854648   -0.173870
H      -0.282999    1.527131   -1.307279
H      -0.639809    2.032474    0.356830
H       0.732013   -0.590918   -0.447198
H      -0.153341   -0.036426    2.133980
H      -1.844117   -0.914607   -2.105542
