16

N      -0.028090    1.408892   -0.133013
C       0.039170    0.030376   -0.022794
N      -1.066060   -0.698347   -0.023810
O      -0.640199   -2.053618    0.006254
C       0.686825   -2.039883    0.041340
C       1.199160   -0.794503    0.027110
C       2.693860   -0.850180    0.034614
N       2.944251   -2.302005    0.279035
C       1.718770   -3.114407    0.065742
H       0.665014    1.901170    0.412427
H      -0.958987    1.768251    0.034451
H       3.125408   -0.500337   -0.916713
H       3.155824   -0.252840    0.832636
H       3.712207   -2.641492   -0.283228
H       1.574859   -3.834154    0.882251
H       1.726385   -3.687636   -0.875136
