16

O       0.534146    0.782872   -0.804896
C       0.103544   -0.323491   -0.075379
C       0.006891   -0.185361    1.449566
O       0.409324    0.682113    2.178911
C      -1.252518   -1.057989    1.539511
O      -2.213672   -0.686526    2.477024
C      -1.404171   -0.677842    0.044385
C      -2.503857    0.095537   -0.557328
N      -2.275124   -1.325337   -0.918949
H       0.526171    1.543055   -0.209090
H       0.679563   -1.203344   -0.389076
H      -1.036961   -2.128730    1.640944
H      -1.949842    0.170095    2.836671
H      -3.404466    0.273508    0.022228
H      -2.239372    0.864341   -1.278110
H      -1.811392   -1.376536   -1.824759
