18

O      -0.154985    0.230454    0.603280
C       0.061884    1.275584    0.053062
C       1.440360    1.679766   -0.447865
O       1.298680    2.831456   -1.257199
C       2.371324    3.655331   -1.346539
N       2.368791    4.610600   -2.162397
C       3.497262    5.473196   -2.196707
C       3.879974    6.056110   -3.537848
C       3.242534    6.933250   -2.495001
H      -0.722963    2.041495   -0.127127
H       2.080094    1.874293    0.426232
H       1.882121    0.845006   -1.007464
H       3.188107    3.412554   -0.650343
H       4.314500    5.248700   -1.507411
H       4.935480    6.180926   -3.751920
H       3.272102    5.755982   -4.382811
H       2.208254    7.219747   -2.642343
H       3.854815    7.667705   -1.983931
