21

C      -0.422933    1.402737    0.249362
C      -0.018058   -0.046410    0.112651
C       1.331103   -0.454270   -0.421903
O       2.313822    0.553110   -0.476833
C       2.971957    0.618283    0.790407
C       1.967262    0.097041    1.821611
C       2.412448   -0.300602    3.201752
C       1.547688    0.922761    3.014288
C       0.999367   -0.740312    1.017897
H       0.443706    2.046047    0.411136
H      -0.919920    1.744495   -0.664997
H      -1.119456    1.548164    1.081670
H      -0.826319   -0.708527   -0.192428
H       1.436174   -1.220919   -1.184096
H       3.876738   -0.010376    0.773930
H       3.276149    1.656549    0.960355
H       1.966735   -1.181943    3.651691
H       3.456971   -0.153191    3.459376
H       2.005588    1.897773    3.149847
H       0.512036    0.867625    3.331758
H       0.783332   -1.746853    1.359101
