16

C      -0.204393    1.581173    0.031660
C      -0.030710    0.067807    0.037179
O       1.099260   -0.335685   -0.787927
C       1.844859   -0.835449    0.332828
C       0.671886   -0.560975    1.307178
C       0.926429    0.306178    2.440674
N       1.137631    1.004211    3.337899
C      -1.254341   -0.624125   -0.346149
C      -2.267949   -1.194753   -0.647756
H       0.720925    2.071455    0.342833
H      -0.456720    1.907611   -0.980211
H      -1.009259    1.880126    0.708600
H       2.109860   -1.891233    0.219552
H       2.748240   -0.247902    0.527109
H       0.168105   -1.467465    1.643729
H      -3.162524   -1.697698   -0.923150
