15

O       0.081275    0.002119   -0.347277
C      -0.033824    1.136005   -0.003367
N      -1.178823    1.898647    0.138873
C      -0.834886    3.303101    0.265296
C      -1.347607    4.225564    1.378422
C      -0.020673    4.969689    1.749266
N       1.077737    3.995254    1.522055
C       0.585429    3.137261    0.742639
O       1.072998    1.929060    0.369308
H      -1.995668    1.570090   -0.352132
H      -0.872754    3.814265   -0.709496
H      -2.152296    4.896254    1.070586
H      -1.687987    3.627625    2.229195
H       0.131099    5.859815    1.125307
H      -0.000910    5.297168    2.791250
