21

O      -0.126285    1.437970   -0.121377
C      -0.024945    0.031183   -0.034163
C      -1.396348   -0.621592    0.032205
O      -2.076390   -0.249054   -1.162193
C      -3.401238   -0.626309   -1.227509
C      -4.581490   -0.212250   -0.288212
C      -5.192742   -1.086991   -1.419677
C      -4.310718   -0.295643   -2.430641
C      -4.001094   -2.070918   -1.238769
H      -0.756630    1.609791   -0.830989
H       0.529643   -0.387880   -0.889021
H       0.537231   -0.198934    0.876921
H      -1.307821   -1.715794    0.105041
H      -1.946449   -0.254225    0.909990
H      -4.595455   -0.639103    0.717955
H      -4.853585    0.846439   -0.284763
H      -6.239726   -1.353326   -1.537640
H      -4.559110    0.758432   -2.579407
H      -4.073234   -0.795998   -3.372863
H      -3.747088   -2.697841   -2.097458
H      -3.971325   -2.631747   -0.300881
