19

C       0.013770    1.460009   -0.195470
C       0.010075   -0.014710    0.042054
O       0.671164   -0.874414   -1.020113
C       0.192142   -1.790472   -0.009450
C       0.102717   -3.245001    0.380204
C      -0.670594   -2.964861    1.736297
C      -0.810969   -1.402816    1.745828
C       0.542408   -0.892361    1.206819
C      -1.133353   -1.037317    0.281179
H       1.038144    1.838065   -0.266046
H      -0.508961    1.703322   -1.125416
H      -0.490062    1.970544    0.631498
H      -0.477967   -3.855362   -0.316147
H       1.073343   -3.721177    0.540768
H      -1.646839   -3.458427    1.749539
H      -0.105442   -3.325100    2.600975
H      -1.321471   -0.958232    2.600410
H       1.519568   -0.840240    1.687668
H      -2.056660   -1.149642   -0.287732
