14

N       0.032039    1.316502    0.172334
C       0.001320   -0.043768    0.006502
N       1.192970   -0.689502   -0.139353
H       1.149152   -1.697568   -0.119392
H       1.993802   -0.285906    0.323089
C      -1.191133   -0.730308   -0.001574
N      -2.417476   -0.173080   -0.010265
N      -3.305784   -1.113573    0.007473
C      -2.628697   -2.355622    0.019859
N      -3.065982   -3.542039    0.029192
O      -1.262947   -2.095574    0.014677
H       0.710419    1.809999   -0.392196
H      -0.886696    1.740906    0.169875
H      -4.084165   -3.511141    0.029853
