19

C       0.082977    1.506043   -0.277026
C      -0.032854    0.032026   -0.021526
O       0.411441   -0.835018   -1.133941
C      -0.017289   -1.758160   -0.092941
C       0.673015   -0.901343    1.023156
C      -0.155601   -1.014312    2.290355
C      -1.109221    0.103932    2.640343
C      -1.566066   -1.003263    1.719615
C      -1.278415   -0.886354    0.233226
H       1.126056    1.764348   -0.485214
H      -0.517523    1.777904   -1.151018
H      -0.256652    2.102592    0.572119
H       0.055296   -2.828053   -0.293064
H       1.761756   -0.885301    1.068183
H       0.145623   -1.714203    3.061216
H      -1.516196    0.083465    3.646521
H      -0.947228    1.104700    2.260050
H      -2.328249   -1.694922    2.059467
H      -2.091654   -0.856398   -0.491600
