18

C      -0.039113    1.617031   -0.197155
C       1.525325    1.466272    0.074658
C       1.155785    0.182306    0.879316
C       1.143238   -1.391110    0.957379
C      -0.420260   -1.071342    1.086699
O      -0.516566   -0.443027    2.353981
C       0.589611    0.480703    2.286634
C      -0.105038    0.068023    0.046349
H      -0.538181    2.234277    0.550137
H      -0.333735    1.961286   -1.190856
H       2.059702    1.251253   -0.853812
H       2.038108    2.275087    0.603107
H       1.421224   -1.885996    0.027070
H       1.592422   -1.888552    1.822447
H      -1.200499   -1.825780    0.980451
H       1.318246    0.255680    3.075099
H       0.228920    1.503749    2.429924
H       0.137666   -0.414280   -0.905201
