25

C      -0.601818    1.450691    0.107804
C       0.063678    0.084058   -0.074817
C       0.672518   -0.462467    1.219776
C       1.341143   -1.838993    1.030005
C       1.925578   -2.370829    2.257018
C       2.396963   -2.779779    3.288255
C       2.979930   -3.304737    4.524241
C       2.301913   -4.624627    4.942597
C       4.505863   -3.478797    4.389846
H       0.118327    2.197333    0.460409
H      -1.027777    1.816617   -0.831622
H      -1.411751    1.401025    0.843992
H      -0.672267   -0.633883   -0.461084
H       0.846594    0.156597   -0.841659
H       1.415964    0.243405    1.609612
H      -0.103320   -0.547059    1.990406
H       0.600266   -2.548794    0.636933
H       2.117317   -1.759510    0.256412
H       2.797968   -2.570092    5.321695
H       2.463356   -5.396976    4.184054
H       2.716506   -4.982505    5.890755
H       1.223776   -4.491230    5.064579
H       4.986949   -2.534751    4.120805
H       4.934374   -3.829503    5.334492
H       4.742099   -4.212238    3.612517
