20

C      -0.239099    1.497715    0.105943
C      -0.339354    0.027380    0.470351
O      -1.094220   -0.633770   -0.538702
C      -1.252839   -1.995996   -0.313091
C      -2.360428   -2.468194    0.598975
C      -2.474934   -2.635538   -0.903149
C      -3.450777   -1.774568   -1.690033
C      -4.827516   -2.262075   -1.599132
N      -5.911201   -2.656181   -1.523704
H       0.342272    2.036156    0.860075
H       0.250437    1.621685   -0.864032
H      -1.233711    1.949244    0.048581
H       0.662179   -0.425977    0.540440
H      -0.825674   -0.104701    1.448627
H      -0.322467   -2.565720   -0.328829
H      -2.208166   -3.348829    1.212439
H      -2.975862   -1.698434    1.053155
H      -2.353906   -3.641832   -1.290970
H      -3.408621   -0.744122   -1.326253
H      -3.163504   -1.741195   -2.747522
