19

C      -0.011127    1.538314   -0.308813
C      -0.045163    0.106476    0.238174
C      -1.424091   -0.515305    0.154117
C      -1.881031   -1.215150   -1.094915
C      -1.586606   -2.014735    0.147302
C      -0.602071   -3.143301    0.421607
O      -1.640655   -3.827861    1.199694
C      -2.554915   -2.821005    0.958721
O      -3.681816   -2.749804    1.332966
H       0.993781    1.964203   -0.233169
H      -0.312681    1.565734   -1.360803
H      -0.692846    2.188800    0.249156
H       0.669129   -0.516227   -0.315817
H       0.291730    0.104114    1.282578
H      -2.199429    0.010267    0.707446
H      -2.920465   -1.136939   -1.394502
H      -1.173428   -1.306951   -1.913623
H      -0.298671   -3.750261   -0.434629
H       0.257930   -2.905389    1.052213
