19

O      -0.235989    1.437428   -0.774525
C      -0.043081    0.149383   -0.222861
C      -1.364162   -0.549741    0.012098
C      -2.033515   -1.285748   -1.104864
C      -1.456943   -2.051686    0.070721
O      -2.246147    0.208747    0.811176
C      -1.952860    0.173745    2.207203
C      -2.961723    0.934196    2.930765
C      -3.779172    1.558623    3.550032
H      -0.999582    1.811545   -0.318197
H       0.560523   -0.427170   -0.931475
H       0.531307    0.203609    0.717877
H      -3.112677   -1.205784   -1.158956
H      -1.525874   -1.331636   -2.061646
H      -0.552762   -2.633821   -0.073100
H      -2.164046   -2.481822    0.771272
H      -1.937423   -0.866775    2.563575
H      -0.958187    0.596278    2.412792
H      -4.505049    2.111258    4.093746
