18

O      -0.099256    0.021319    0.096631
C       0.018301    1.222526    0.134078
C       1.314461    1.947522    0.045329
C       2.662116    1.289128   -0.290457
N       3.113847    2.638418   -0.774883
C       2.771512    3.646934    0.349933
C       1.850891    4.371059   -0.653806
C       1.671207    2.944885   -1.162276
C       1.748855    2.866471    1.212292
H      -0.877532    1.882957    0.219123
H       3.243645    0.843721    0.521681
H       2.620675    0.603295   -1.139745
H       3.610301    4.134075    0.844145
H       0.997583    4.932894   -0.268767
H       2.410549    4.961275   -1.382089
H       1.333039    2.671287   -2.162226
H       0.958735    3.510733    1.607531
H       2.181471    2.294611    2.036574
