27

C      -0.256685    1.833521   -1.236267
C      -0.215525    0.367695   -0.795267
C       0.797775   -0.463152   -1.590119
C       0.859973   -1.938339   -1.172780
O      -0.446930   -2.505931   -1.320306
C      -1.041165   -2.972613   -0.130813
C       1.855208   -2.772202   -2.009043
C       3.292029   -2.236424   -1.918617
C       1.812480   -4.252629   -1.606321
H       0.718991    2.315996   -1.108445
H      -0.530410    1.920244   -2.293755
H      -0.988353    2.404772   -0.656125
H       0.029474    0.316420    0.274550
H      -1.208237   -0.079872   -0.909841
H       0.547286   -0.417578   -2.658780
H       1.792191   -0.015579   -1.481084
H       1.161968   -1.996858   -0.113836
H      -0.454307   -3.775236    0.340142
H      -1.181064   -2.169095    0.607397
H      -2.023654   -3.372619   -0.398032
H       1.521616   -2.698372   -3.053636
H       3.395012   -1.235059   -2.344165
H       3.632770   -2.195997   -0.876494
H       3.978222   -2.895006   -2.460813
H       0.800290   -4.653740   -1.689456
H       2.468238   -4.847421   -2.250526
H       2.155133   -4.390842   -0.573083
