15

C      -0.333229    1.465070    0.098414
C       0.172188    0.048632   -0.050171
O       1.407252   -0.044948   -0.796160
C       2.041999   -0.826224    0.224933
C       0.838574   -0.631006    1.189792
O       1.038984    0.287163    2.235946
C       0.200322   -1.858100    1.676844
N      -0.281598   -2.828029    2.080966
H       0.404767    2.093974    0.598057
H      -0.537534    1.874495   -0.895465
H      -1.262130    1.480940    0.676499
H      -0.594324   -0.597695   -0.496614
H       2.224119   -1.861625   -0.086387
H       2.969459   -0.370837    0.589478
H       1.513300   -0.152990    2.950576
