19

C      -0.083983    1.822738   -0.389869
C      -0.301273    0.348379   -0.716589
N       0.987145   -0.346460   -0.810206
C       0.969438   -1.785128   -0.970961
C       0.682922   -2.359823   -2.384070
C      -0.707825   -2.230468   -2.802555
N      -1.814274   -2.134552   -3.123692
C       2.305704   -2.331968   -0.457117
O       2.925172   -3.227567   -0.968056
H       0.481655    1.935314    0.539318
H       0.472814    2.325989   -1.188886
H      -1.043243    2.337217   -0.283881
H      -0.870996   -0.130389    0.089187
H      -0.909696    0.255266   -1.628176
H       1.573220    0.088048   -1.516169
H       0.212976   -2.177821   -0.274491
H       1.328208   -1.862933   -3.117551
H       0.967598   -3.417053   -2.395415
H       2.661780   -1.800040    0.450012
