21

C      -0.086511    1.532037   -0.074749
C       0.005818    0.016747    0.131568
C      -1.357364   -0.661374    0.061829
O      -2.009886   -0.425479   -1.223348
C      -2.356975   -1.755141   -1.634242
C      -2.890578   -2.425569   -0.346917
C      -1.405340   -2.196893    0.087888
C      -1.025522   -2.528602   -1.388888
O      -1.039915   -3.919419   -1.615652
H       0.901386    1.999067   -0.021552
H      -0.522913    1.757976   -1.051262
H      -0.718491    1.997159    0.690041
H       0.681332   -0.417413   -0.613125
H       0.438723   -0.202453    1.116645
H      -1.995778   -0.241328    0.853419
H      -2.886582   -1.725890   -2.586672
H      -3.673775   -1.897518    0.201767
H      -3.128952   -3.478680   -0.479831
H      -0.944825   -2.711515    0.930267
H      -0.126388   -2.057639   -1.803032
H      -1.003627   -4.064837   -2.566382
