17

O      -0.089432    1.328300   -0.032660
C       0.017354   -0.043244   -0.040826
C       0.414128   -0.998777    1.149212
C      -1.029698   -1.004414    1.692159
C      -1.205017   -0.986982    0.158797
C       0.039328   -1.915603   -0.059083
C       0.688411   -0.966219   -1.104437
C       0.177682   -0.960993   -2.459207
C      -0.253022   -0.951090   -3.582501
H       0.794324    1.709472    0.014680
H       1.364852   -1.006977    1.685509
H      -1.353746   -1.910298    2.213140
H      -1.354436   -0.110303    2.230718
H      -2.113623   -0.985905   -0.441586
H       0.035316   -3.002796   -0.064076
H       1.785449   -0.959970   -1.088680
H      -0.633293   -0.941338   -4.573807
