17

O       0.198457    1.488951   -0.129531
C       0.071277    0.071426   -0.048067
C       0.713468   -0.638779   -1.254658
N       0.005109   -0.301722   -2.476570
C       0.468433    0.873047   -3.205268
C       0.735663   -0.494604   -3.726399
C       0.615785   -0.447290    1.209188
C       1.113866   -0.851940    2.225921
H       1.093593    1.713991    0.147566
H      -1.007103   -0.118922   -0.092288
H       1.788061   -0.377183   -1.289253
H       0.645711   -1.721609   -1.100634
H      -0.308939    1.492163   -3.642454
H       1.310198    1.425866   -2.794758
H       1.760473   -0.858801   -3.667083
H       0.157261   -0.899981   -4.551563
H       1.531197   -1.212571    3.133678
