23

C       0.087630    1.532770    0.214823
C       0.046180    0.001612    0.177372
C      -1.338600   -0.556769   -0.103736
C      -2.409773   -0.416755    1.028557
C      -2.591024   -1.960779    1.050853
C      -1.552709   -2.111452   -0.098597
C      -2.110780   -2.411970   -1.494333
C      -2.658321   -1.044613   -1.935523
O      -1.770348   -0.085784   -1.377441
H       1.101864    1.892831    0.412414
H      -0.245962    1.948622   -0.739125
H      -0.565253    1.929567    0.999882
H       0.728287   -0.370190   -0.597503
H       0.397191   -0.408486    1.132516
H      -2.029616    0.015134    1.957925
H      -3.289841    0.152546    0.720230
H      -2.286314   -2.435132    1.986466
H      -3.596738   -2.314834    0.805815
H      -0.678097   -2.717702    0.145495
H      -1.304384   -2.723841   -2.165777
H      -2.875790   -3.194192   -1.496013
H      -2.672290   -0.899372   -3.019089
H      -3.683757   -0.894701   -1.560470
