21

C       0.189532    1.550868   -0.044813
C       0.024209    0.040037    0.022439
O       0.671773   -0.532724   -1.114950
C       1.217325   -1.798145   -0.779428
C       1.427643   -1.783046    0.724016
C       1.750738   -3.053945    1.456703
O       2.107061   -0.583344    1.141368
C       0.670392   -0.628358    1.232352
C       0.055576   -0.481790    2.595254
H       1.247178    1.809875    0.048099
H      -0.181216    1.926562   -1.001994
H      -0.372645    2.041065    0.756448
H      -1.048497   -0.223971    0.019663
H       0.533809   -2.621472   -1.048232
H       2.149233   -1.925691   -1.341767
H       2.718256   -3.449390    1.128414
H       1.808726   -2.883411    2.533897
H       0.992304   -3.819677    1.262529
H       0.084683    0.563879    2.920138
H      -0.992130   -0.800457    2.584601
H       0.594789   -1.075948    3.336162
