20

C       0.056182    1.065819   -0.747252
C      -0.114407   -0.156370    0.170914
C      -1.547475   -0.548782    0.386604
C      -2.249032   -0.459976    1.561462
N      -3.539838   -0.904238    1.328256
C      -3.653595   -1.273498    0.018969
O      -4.854335   -1.742040   -0.388491
C      -4.915572   -2.110404   -1.755031
C      -2.445900   -1.070913   -0.607056
H       1.114481    1.311544   -0.885488
H      -0.378101    0.880146   -1.734812
H      -0.446999    1.941663   -0.325602
H       0.443572   -1.000601   -0.256148
H       0.349577    0.053202    1.141977
H      -1.947407   -0.123490    2.540074
H      -4.285910   -0.968751    1.997757
H      -5.931969   -2.462406   -1.937153
H      -4.700845   -1.252581   -2.405004
H      -4.201883   -2.913293   -1.979656
H      -2.217138   -1.269059   -1.641695
