13

O       0.028243    0.069212   -0.008184
C       0.008549    1.265345    0.064475
C      -1.072316    2.301015    0.044307
C      -0.466606    3.570201    0.668856
C       0.926487    3.212498    1.197959
C       1.080805    2.364339   -0.097131
C      -0.096662    3.215962   -0.732149
H      -2.136980    2.185477   -0.103623
H      -1.131408    4.355770    1.005560
H       1.584436    4.085334    1.193408
H       1.010536    2.685345    2.154700
H       2.047670    2.140200   -0.538228
H      -0.241907    3.669169   -1.700010
