15

C       0.053615    1.451108   -0.042253
C      -0.033812   -0.031710    0.016035
N      -1.088888   -0.731555    0.183638
C      -0.678593   -2.114303    0.121411
C      -0.064140   -2.564899   -1.201883
C       0.838855   -2.071837   -0.120245
O       1.155496   -0.698915   -0.123124
C      -1.345135   -3.061767    0.969808
N      -1.857066   -3.849349    1.643874
H       0.796912    1.812153    0.674749
H       0.372492    1.776587   -1.037509
H      -0.921073    1.881467    0.184223
H      -0.046201   -3.633320   -1.382582
H      -0.258177   -1.940380   -2.067026
H       1.583436   -2.691872    0.360184
