21

C       0.270697    1.564471    0.181541
C       0.066836    0.042536    0.068505
O       0.750193   -0.638615    1.117936
C      -1.416183   -0.369996   -0.011408
C      -2.259331    0.029401    1.202142
C      -3.681744   -0.510979    1.120020
O      -4.375095   -0.084156    2.282543
C       0.787606   -0.409302   -1.204374
O       0.337809   -0.295272   -2.313942
H       1.337906    1.805966    0.177053
H      -0.209419    2.082832   -0.652774
H      -0.156470    1.943248    1.115879
H       0.491210   -0.242744    1.955599
H      -1.833861    0.053140   -0.931208
H      -1.443667   -1.460409   -0.127832
H      -1.808279   -0.354307    2.126009
H      -2.317794    1.118831    1.303286
H      -4.167808   -0.137219    0.203995
H      -3.657375   -1.610629    1.049366
H      -5.274175   -0.422116    2.238263
H       1.794751   -0.838626   -1.008109
