17

N       0.279056    1.467353    0.207672
C       0.068922    0.098442    0.060159
C      -1.086853   -0.607324   -0.098050
C      -2.533195   -0.276980   -0.133808
C      -3.152944   -0.390971   -1.530800
O      -4.525376   -0.053598   -1.411416
O      -0.715463   -1.933629   -0.274570
C       0.624129   -1.926186   -0.208352
N       1.155868   -0.762895   -0.010899
H       1.177015    1.654283    0.634277
H      -0.459578    1.944855    0.706183
H      -3.099106   -0.925668    0.546241
H      -2.673922    0.749356    0.222716
H      -2.625404    0.285618   -2.220479
H      -3.018791   -1.417051   -1.905147
H      -4.932912   -0.135538   -2.278343
H       1.127191   -2.873989   -0.320188
