20

C      -0.068439    1.542354    0.115823
C       0.085922    0.055768    0.024733
N      -0.819127   -0.873038    0.751495
C       0.655948   -0.939888    0.954319
C       1.286653   -1.736033   -0.221189
C       0.259221   -2.161871   -1.243477
C       0.702643   -0.725290   -1.196147
C       1.386195   -0.029483   -2.337343
O       2.219096   -0.969854   -3.001997
H       0.831207    2.063423   -0.228387
H      -0.911683    1.897041   -0.489556
H      -0.249440    1.847429    1.152515
H      -1.199635   -0.350438    1.540946
H       1.087049   -0.811057    1.939541
H       2.294157   -2.129446   -0.203883
H       0.680342   -2.710894   -2.078499
H      -0.737645   -2.448001   -0.935453
H       0.635954    0.390283   -3.029621
H       1.983149    0.817400   -1.958142
H       2.598701   -0.538673   -3.772674
