19

C       0.090307    1.713995   -0.065524
C      -0.068127    0.205340   -0.120662
O       0.861634   -0.299792   -1.074267
C       0.824259   -1.711053   -1.204176
C      -0.425224   -2.121401   -2.009886
O      -1.208066   -2.966455   -1.672141
C       1.997505   -2.169212   -1.935980
C       2.919558   -2.586406   -2.588499
C       4.050206   -3.080267   -3.358757
H       1.111088    1.981375    0.221141
H      -0.119611    2.158776   -1.042183
H      -0.601402    2.140467    0.666888
H       0.129597   -0.246383    0.864551
H      -1.098411   -0.066176   -0.398899
H       0.761950   -2.200922   -0.219953
H      -0.535612   -1.534480   -2.948382
H       3.743000   -3.881169   -4.039915
H       4.492307   -2.280665   -3.962648
H       4.833259   -3.478915   -2.704994
