12

N      -0.034471    1.294383    0.008546
C       0.060983   -0.051514    0.000377
O       1.089387   -0.702967   -0.013061
C      -1.325764   -0.733550    0.009892
O      -2.341085   -0.082215    0.022585
C      -1.273097   -2.244982    0.001913
O      -2.579399   -2.755282    0.011526
H       0.796452    1.860882    0.003867
H      -0.950363    1.714258    0.019854
H      -0.687789   -2.545849   -0.882593
H      -0.671531   -2.554513    0.872430
H      -2.521616   -3.714900    0.004594
