17

N      -0.182106   -1.262465   -0.010153
C      -0.122605   -0.107042    0.027002
C      -0.063137    1.349935    0.015622
C      -0.315671    2.095695    1.398502
C       1.211932    2.293761    1.392855
C       2.503953    3.147031    1.250227
C       2.670847    1.796238    0.422013
C       2.125110    1.042019    1.640776
N       1.259983    2.116137   -0.097787
H      -0.708853    1.689501   -0.797610
H      -0.893488    3.007367    1.239253
H      -0.740711    1.508525    2.213041
H       2.399437    4.052233    0.652926
H       3.163278    3.263380    2.112582
H       3.496738    1.535483   -0.242372
H       2.739026    1.049262    2.545017
H       1.696619    0.057484    1.466959
