25

C      -0.556938    1.390365   -0.114696
C      -0.035855   -0.041280   -0.076718
C       1.122619   -0.473904   -1.013847
C       2.318063    0.510544   -1.184672
C       3.112490   -0.256771   -0.086101
C       1.870823   -1.136244    0.196990
C       0.771355   -0.579614    1.173329
C       1.230228    0.467174    2.188243
C       0.032203   -1.706685    1.898292
H       0.228452    2.132416    0.055705
H      -1.008682    1.609369   -1.089037
H      -1.327909    1.549475    0.647514
H      -0.887281   -0.710740   -0.247358
H       0.840268   -1.026064   -1.912210
H       2.780000    0.484365   -2.174542
H       2.093369    1.555263   -0.954607
H       3.935137   -0.842352   -0.505868
H       3.512977    0.329847    0.744736
H       2.039164   -2.212451    0.276482
H       1.728710    1.322654    1.724779
H       0.377237    0.855493    2.756498
H       1.930907    0.027521    2.907672
H       0.666265   -2.166488    2.666020
H      -0.872599   -1.331995    2.392115
H      -0.270980   -2.495801    1.201665
