13

N      -0.076824    1.268676    0.019549
C       0.037523   -0.070431   -0.082054
O       1.070063   -0.668836   -0.312237
C      -1.281621   -0.895707    0.050216
O      -0.967476   -2.253956   -0.007087
C      -2.000531   -0.548267    1.278096
C      -2.603533   -0.248564    2.281560
C      -3.280137    0.096586    3.416271
N      -3.854605    0.400867    4.378883
H       0.760764    1.827686   -0.018057
H      -0.925752    1.695806    0.350638
H      -1.919536   -0.610111   -0.804250
H      -0.000008   -2.270474   -0.133044
