19

C      -0.750263    0.978697   -0.076569
C       0.124878   -0.260283   -0.121596
C       1.419095   -0.276222   -0.972470
O       1.982492    1.036497   -0.945998
C       2.060214   -1.189186    0.101477
C       1.013627   -0.637501    1.124454
O       1.463982    0.461137    1.881245
C       0.418474   -1.635726    2.088471
O      -0.039334   -2.696927    1.744924
H      -0.179175    1.865685    0.203827
H      -1.201402    1.166418   -1.056451
H      -1.560454    0.852765    0.648576
H      -0.459954   -1.150196   -0.374091
H       1.352018   -0.648496   -2.001525
H       2.872527    0.985591   -1.310227
H       1.891639   -2.250505   -0.095903
H       3.109590   -1.010082    0.350797
H       1.844405    1.091060    1.254745
H       0.433271   -1.310230    3.151138
