19

C      -0.018518    1.397730    0.202320
C      -0.017421   -0.043931   -0.003407
C      -0.004128   -1.236257   -0.170277
C      -0.014780   -2.682363   -0.373742
C      -1.387624   -3.293229   -0.122714
C      -1.668659   -4.784234   -0.045523
C      -0.568134   -5.489594    0.738814
O      -0.669754   -4.531902    1.827128
C      -1.783778   -3.903031    1.184558
H       0.606093    1.679627    1.057378
H       0.366233    1.927496   -0.676419
H      -1.029930    1.772545    0.395793
H       0.312138   -2.914826   -1.395979
H       0.708382   -3.150736    0.303499
H      -2.206900   -2.757641   -0.596911
H      -2.428473   -5.271354   -0.641718
H      -0.857789   -6.487999    1.084786
H       0.438359   -5.528974    0.305570
H      -2.617123   -3.599433    1.807764
