18

C      -0.087831    1.660189    0.055516
C       0.078286    0.146951   -0.002327
O       1.208424   -0.263649   -0.807659
C       1.824675   -0.979334    0.294393
C       0.690935   -0.564535    1.222397
C       0.651601   -0.165393    2.641806
N       0.029123   -1.423770    2.181537
C      -1.196699   -0.512344   -0.499489
O      -2.188448   -0.621334    0.179758
H       0.816598    2.122219    0.458885
H      -0.265041    2.062572   -0.947197
H      -0.941713    1.921713    0.687517
H       1.890860   -2.056763    0.104176
H       2.818783   -0.582262    0.528392
H       1.531370   -0.291784    3.267556
H       0.010152    0.666932    2.920926
H      -0.980795   -1.316673    2.099247
H      -1.137359   -0.902640   -1.539129
