17

O       0.042154    1.429008    0.016171
C       0.070042    0.025584   -0.074589
C      -1.343369   -0.561947   -0.000664
C      -1.388366   -2.118314   -0.016694
N      -2.113517   -2.403441    1.230404
C      -2.472069   -3.639108    1.712875
O      -3.055534   -3.822810    2.755778
C      -2.350307   -1.191342    1.879303
N      -1.963892   -0.141869    1.274099
H      -0.521030    1.635187    0.773371
H       0.534586   -0.229406   -1.034031
H       0.682259   -0.428489    0.724254
H      -1.930773   -0.133693   -0.820377
H      -1.921552   -2.518438   -0.882395
H      -0.385037   -2.559291    0.009273
H      -2.164955   -4.454375    1.031020
H      -2.840218   -1.218149    2.844653
