17

C      -0.204542   -1.212054   -0.317408
C      -0.123178   -0.047823   -0.027053
C       0.007062    1.359125    0.292684
O       0.169414    1.631623    1.706945
C       1.312195    2.479521    1.465322
C       1.356267    2.084542   -0.018649
C       2.549770    1.388265   -0.689490
C       2.432621    2.515385   -1.733667
O       1.333116    3.114955   -1.004871
H      -0.294963   -2.241562   -0.563131
H      -0.832485    1.931585   -0.126035
H       1.085235    3.542617    1.615659
H       2.174130    2.192074    2.078287
H       3.467076    1.391281   -0.098045
H       2.349081    0.377467   -1.046467
H       3.285809    3.197822   -1.809101
H       2.128317    2.205083   -2.739191
