20

C       0.606095    0.884175    0.250164
O       0.781471    0.480844   -1.090299
C      -0.225482   -0.388145   -1.577419
C       0.001086   -1.854051   -1.186212
N      -1.137796   -2.672282   -1.648026
C      -0.628729   -3.654110   -2.267263
O       0.709235   -3.765214   -2.389751
C       1.266906   -2.554569   -1.784506
C       2.062113   -1.805253   -2.842542
H      -0.365507    1.379881    0.397266
H       0.674825    0.047154    0.960665
H       1.403603    1.595843    0.477832
H      -1.218386   -0.085566   -1.215791
H      -0.226393   -0.284132   -2.666392
H       0.032942   -1.909241   -0.091239
H      -1.189929   -4.457783   -2.732521
H       1.936086   -2.891268   -0.988008
H       1.434169   -1.550814   -3.701276
H       2.463674   -0.880680   -2.421754
H       2.887585   -2.426657   -3.199663
