15

C      -0.018607    1.526806    0.046311
C      -0.010030    0.040159   -0.015572
C      -0.032201   -0.854427   -1.063799
N      -0.011655   -2.183641   -0.657025
C       0.022968   -2.067475    0.635846
O       0.057442   -2.935568    1.673120
C       0.082938   -2.151671    2.809288
C       0.065192   -0.838882    2.498093
N       0.026727   -0.782434    1.106575
H       0.878413    1.929433    0.533724
H      -0.052910    1.931929   -0.967874
H      -0.889433    1.916770    0.588415
H      -0.062785   -0.605655   -2.114398
H       0.112286   -2.676104    3.747588
H       0.076552    0.027405    3.135724
