20

O       0.182213    1.325956   -0.007909
C       0.038155   -0.073644   -0.122146
C      -1.427980   -0.501408    0.007014
O      -1.894536   -0.007539    1.282614
C      -1.993706   -0.873667    2.308450
N      -2.233741   -0.451712    3.473215
C      -2.307385    0.071594   -1.072686
C      -2.539130   -0.720267   -2.336281
C      -3.659219   -0.529044   -1.344995
H      -0.238713    1.576296    0.823837
H       0.417275   -0.356705   -1.109354
H       0.635867   -0.605174    0.636163
H      -1.492651   -1.599100   -0.001206
H      -1.861735   -1.923069    2.007892
H      -2.306441   -1.235140    4.118774
H      -2.208462    1.146092   -1.180930
H      -2.576448   -0.180319   -3.275328
H      -2.092886   -1.706933   -2.412444
H      -3.964123   -1.385725   -0.752531
H      -4.471974    0.140194   -1.602649
