21

C      -0.042868    1.464176   -0.079452
C       0.023780   -0.040222    0.003486
C      -0.838940   -0.817755    0.965519
C       0.662364   -0.795370    1.149643
C       1.434805   -1.943344    0.526758
C       1.337871   -3.302810    1.207064
O       2.000537   -4.303314    0.457941
O       0.864778   -2.097901   -0.781768
C       0.432479   -0.820869   -1.239292
H       0.901085    1.885551   -0.444635
H      -0.838021    1.791787   -0.759586
H      -0.249136    1.904083    0.900902
H      -1.429384   -0.245070    1.672704
H      -1.307022   -1.735218    0.623656
H       1.094409   -0.273696    1.995969
H       2.499543   -1.669154    0.437909
H       1.825003   -3.261722    2.187224
H       0.277050   -3.550547    1.366947
H       1.666014   -4.222495   -0.442926
H      -0.380871   -0.987072   -1.954402
H       1.247298   -0.290295   -1.759932
