16

C       0.236578    0.796319   -1.086286
C      -0.134710    0.333321    0.300852
O       0.638060    0.394259    1.238001
C      -1.519093   -0.308625    0.428438
O      -1.420445   -1.626291   -0.174485
C      -1.406896   -2.265593    1.131698
C      -1.871152   -0.946328    1.802502
O      -1.286038   -0.487007    2.973396
H       1.290477    1.073295   -1.125540
H       0.020940    0.000241   -1.805964
H      -0.381509    1.658639   -1.363715
H      -2.283453    0.306580   -0.061954
H      -2.081171   -3.126388    1.164328
H      -0.395358   -2.570736    1.427606
H      -2.954013   -0.950718    1.955126
H      -0.383303   -0.215888    2.741778
