21

C      -0.909931    1.284405   -0.479871
C      -0.260932   -0.067498   -0.178742
C       0.546313   -0.060081    1.127519
O      -0.367012    0.213995    2.187973
C       0.241466    0.474279    3.418046
C       0.740250    1.867944    3.706285
C      -0.526759    1.344156    4.356162
C       1.251991   -1.332024    1.333274
C       1.823709   -2.377325    1.494021
H      -0.154057    2.068778   -0.601024
H      -1.491419    1.237527   -1.405256
H      -1.578215    1.581882    0.331440
H      -1.022575   -0.850274   -0.096995
H       0.413786   -0.361699   -0.989537
H       1.295607    0.747546    1.082877
H       0.802206   -0.365053    3.825173
H       1.631304    1.988902    4.312408
H       0.617388    2.607044    2.922321
H      -1.467515    1.737431    3.988345
H      -0.516046    1.101528    5.412656
H       2.331622   -3.299056    1.637306
