18

C      -0.044386    1.563074    0.049554
C       0.051155    0.056283    0.003056
C      -0.811726   -0.808793    0.912043
C       0.681984   -0.810435    1.092421
C       1.482659   -1.921716    0.419922
C       1.170678   -1.721185   -1.058630
C       0.421616   -0.624976   -1.266726
C       1.626854   -2.614941   -2.062812
N       2.020402   -3.359741   -2.859056
H       0.889424    2.034533   -0.275333
H      -0.848118    1.929318   -0.599382
H      -0.258649    1.908203    1.065365
H      -1.395462   -0.289113    1.665300
H      -1.295837   -1.682588    0.487752
H       1.086549   -0.348772    1.985532
H       2.559023   -1.824400    0.605616
H       1.192927   -2.921500    0.763276
H       0.101109   -0.274343   -2.241296
