18

C      -0.461167    1.323190   -0.075764
C       0.131975   -0.065628    0.101444
C       0.901375   -0.765155   -1.052939
C       2.007340   -1.231583   -0.059268
C       1.403762   -0.240167    0.949220
O       1.808822    0.288653    1.942864
O       0.144323   -1.780083   -1.685559
C       0.533099   -2.170601   -2.917849
N      -0.029129   -3.153212   -3.472595
H       0.282843    2.023997   -0.467977
H      -1.311073    1.303675   -0.764472
H      -0.808030    1.712361    0.885634
H      -0.622843   -0.774392    0.467895
H       1.279663   -0.050052   -1.792907
H       1.844904   -2.269722    0.248962
H       3.055638   -1.093130   -0.331802
H       1.335696   -1.549516   -3.340037
H       0.360641   -3.298888   -4.401435
