16

O       0.114219    1.153097   -0.583986
C       0.085376   -0.140128   -0.020393
C      -1.365113   -0.568799    0.231245
N      -2.177450   -0.516482   -1.021730
C      -2.611258   -1.947022   -0.910601
C      -2.376168   -2.787537   -2.065848
C      -2.162562   -3.506171   -3.005038
C      -1.639601   -2.074812    0.309143
O      -1.262204   -2.976804    0.986341
H      -0.393683    1.088696   -1.403178
H       0.575254   -0.877234   -0.674191
H       0.638556   -0.102487    0.922387
H      -1.786061   -0.006345    1.074187
H      -2.957983    0.127550   -0.973521
H      -3.647254   -2.064873   -0.559885
H      -1.975404   -4.136781   -3.838979
