15

C      -0.306344    1.493132    0.014813
C       0.140706    0.042113    0.001084
O       1.287843   -0.314300   -0.013465
N      -0.947398   -0.851223    0.007255
C      -0.882355   -2.231422   -0.001779
O       0.089198   -2.926622   -0.016470
O      -2.189375   -2.682362    0.009669
C      -2.383092   -4.041653    0.003561
N      -3.566753   -4.463766    0.014051
H       0.577867    2.128718    0.008782
H      -0.923057    1.718647   -0.861691
H      -0.903246    1.707933    0.907576
H      -1.881251   -0.469086    0.019702
H      -1.446203   -4.598829   -0.009941
H      -3.569286   -5.482560    0.008061
