14

C      -0.028818    1.530579    0.017767
C      -0.007794    0.031435   -0.020913
C      -0.040257   -0.710611   -1.147109
O      -0.020908   -2.044958   -1.165148
C       0.036697   -2.769797    0.038399
N       0.050671   -4.024696   -0.096356
N       0.071734   -2.051454    1.224378
C       0.050409   -0.777098    1.168612
F       0.084650   -0.112445    2.315094
H       0.865704    1.929929    0.506844
H      -0.074740    1.941560   -0.994046
H      -0.893817    1.903444    0.575962
H      -0.085304   -0.294171   -2.147755
H       0.092958   -4.450383    0.827407
