20

C      -0.680536    1.202275    0.363498
N      -0.041361   -0.107058    0.247023
C       1.178403   -0.290515   -0.560636
C       1.917578    0.816567   -1.213370
O       1.981023    1.968327   -0.838819
C       1.167252   -0.417977    0.962252
C       1.883995    0.533452    1.862832
C       1.690337    0.397858    3.358277
C       3.000675    0.004578    2.732298
H       0.002795    2.055535    0.339550
H      -1.392220    1.306627   -0.460867
H      -1.244122    1.213790    1.301198
H       1.180406   -1.207959   -1.146906
H       2.445532    0.498985   -2.140536
H       1.195197   -1.449635    1.319162
H       2.011030    1.535922    1.475876
H       1.646099    1.306938    3.947212
H       1.042320   -0.395881    3.715423
H       3.234193   -1.053736    2.671494
H       3.864481    0.640595    2.888142
