18

C      -0.379849    1.510641    0.089094
C      -0.017979    0.042216   -0.029256
C       0.729113   -0.440745   -1.305107
C       1.755674   -1.136905   -0.352302
C       3.202336   -0.754878   -0.279454
C       3.391921    0.057542    0.766031
C       2.076652    0.396795    1.395620
O       1.844388    1.259395    2.214727
N       1.137187   -0.455859    0.799284
H       0.462092    2.157190   -0.173508
H      -1.209917    1.731965   -0.590204
H      -0.683935    1.758907    1.108345
H      -0.897140   -0.574137    0.187607
H       0.182198   -1.097405   -1.983283
H       1.170704    0.384330   -1.868662
H       1.627122   -2.226641   -0.323424
H       3.960782   -1.150779   -0.944245
H       4.320019    0.488477    1.116025
