16

O       0.547665    1.003896   -1.528187
C       0.249595    1.569366   -0.496960
N       1.072563    1.681333    0.579718
C       2.408210    1.111930    0.582726
C       3.402686    1.941198   -0.265591
C       4.746064    1.389638   -0.239417
C       5.858102    0.918792   -0.198297
C       7.170841    0.329021   -0.154817
O       8.205495    0.946857   -0.261967
H      -0.733318    2.050522   -0.326803
H       0.753779    2.201021    1.380994
H       2.755113    1.048805    1.616544
H       2.358620    0.098433    0.176281
H       3.033588    1.957086   -1.297567
H       3.416069    2.979820    0.086643
H       7.167913   -0.770798   -0.010429
