17

C      -0.196353    1.406755    0.332460
C       0.063343   -0.058396    0.082387
O      -1.065054   -0.798932   -0.297979
C       1.396290   -0.529156   -0.462903
C       0.986988   -0.855750    0.959166
N       1.704419   -0.234582    2.032458
C       1.120173    0.112365    3.216255
O      -0.066619    0.069551    3.448776
H       0.705468    1.917458    0.677987
H      -0.528848    1.900054   -0.589025
H      -0.972408    1.520089    1.093423
H      -1.353115   -0.474255   -1.158398
H       1.393941   -1.345044   -1.176195
H       2.179124    0.209838   -0.602038
H       0.650886   -1.872501    1.147015
H       2.712537   -0.262302    2.003554
H       1.872754    0.462387    3.952605
