15

O       0.022360    0.048386   -0.052516
C       0.010365    1.241338   -0.009370
C      -1.170844    2.238778    0.041525
N      -0.456481    3.541930    0.079498
C       0.603880    3.308546   -0.973543
C       1.191285    2.239951    0.011708
C       0.629927    3.234278    1.085879
C       2.536726    1.734229   -0.023544
N       3.628299    1.354396   -0.051044
H      -1.809184    2.159351   -0.842245
H      -1.786752    2.095330    0.933105
H       0.239762    2.973291   -1.947206
H       1.245659    4.184324   -1.079109
H       1.274968    4.100761    1.238001
H       0.290211    2.829440    2.041754
