18

C      -0.038035    1.552283   -0.208171
C       1.508963    1.543173    0.101634
C       1.325919    0.112363    0.646166
C       0.737351   -0.264010    2.025154
C      -0.310396   -1.008853    1.155754
C       0.556853   -1.954505    0.262898
C       0.551137   -1.080959   -0.928428
N       1.790887   -1.137838   -0.061861
C      -0.061653    0.016738   -0.019388
H      -0.618015    2.075364    0.556938
H      -0.350913    1.928487   -1.185123
H       2.120033    1.554627   -0.804452
H       1.889295    2.301907    0.789732
H       1.350781   -0.841338    2.722063
H       0.314186    0.606597    2.534448
H      -1.266830   -1.386244    1.519400
H       0.673193   -3.027108    0.334710
H       0.543695   -1.307798   -1.988165
