21

C       0.035624    1.549025   -0.002771
C      -0.006547    0.040806   -0.068453
C       0.362912   -0.737029   -1.348392
C      -0.562954   -1.883079   -0.842044
C       0.242555   -2.860644    0.026007
C       1.115230   -2.033066    1.004215
C       0.368681   -0.728483    1.259345
O      -1.036119   -1.061668    1.498073
C      -1.271641   -0.827039    0.103377
H       1.069344    1.915797    0.014435
H      -0.459973    1.997690   -0.870651
H      -0.463787    1.917293    0.900024
H      -0.045961   -0.229163   -2.227862
H       1.412255   -0.980942   -1.544505
H      -1.186713   -2.390601   -1.580113
H      -0.443909   -3.495445    0.592765
H       0.857581   -3.516104   -0.599031
H       1.272811   -2.571829    1.943726
H       2.105603   -1.819583    0.585881
H       0.781673   -0.123089    2.071765
H      -2.297548   -0.530127   -0.126537
