14

C      -0.050063    1.400771    0.102497
N       0.084849   -0.047890    0.065839
C       0.586469   -0.592139   -0.945613
N       0.788295   -1.949579   -1.159724
C       1.331386   -2.105016   -2.406271
C       1.672179   -3.429987   -2.987834
O       2.142758   -3.587099   -4.081172
N       1.515966   -0.974060   -3.010833
O       1.063457    0.003710   -2.107609
H       0.839273    1.858879    0.553729
H      -0.195389    1.852531   -0.886438
H      -0.905151    1.659005    0.732906
H       0.519521   -2.660907   -0.502677
H       1.449106   -4.282114   -2.309164
