21

C      -0.425198    1.188284    0.644584
C      -0.235805   -0.224092    0.340611
C      -0.035907   -1.386686    0.084132
C       0.132656   -2.793185   -0.230114
C       0.566516   -3.701458    0.971577
C      -0.905308   -4.171953    1.160000
C      -1.650974   -3.508567    2.314391
C      -1.231146   -3.584649   -0.252921
O      -2.415716   -2.874586   -0.460120
H       0.536775    1.690111    0.796790
H      -0.942864    1.706012   -0.170360
H      -1.017616    1.327127    1.555588
H       0.735148   -2.901971   -1.136850
H       1.237718   -4.500458    0.648438
H       1.020218   -3.178646    1.815590
H      -1.032081   -5.257158    1.221843
H      -1.495531   -2.425024    2.327678
H      -2.726915   -3.692135    2.237326
H      -1.302927   -3.903674    3.274608
H      -1.195250   -4.367237   -1.016686
H      -2.292152   -1.993315   -0.082689
