23

C       0.023864    1.561097    0.042856
C       0.117693    0.036674    0.044007
C       0.782773   -0.574027   -1.219506
C       1.454605   -1.815338   -0.687189
C       1.537680   -1.824009    0.645659
C       2.167597   -2.883098    1.499680
C       3.407561   -2.397067    2.253902
O       3.886820   -3.482592    3.032868
C       0.923147   -0.562857    1.226403
H       1.020233    2.015250   -0.013343
H      -0.555278    1.924375   -0.813063
H      -0.460161    1.933006    0.952516
H      -0.897729   -0.374943    0.103941
H       0.056394   -0.778988   -2.014769
H       1.523077    0.116563   -1.652885
H       1.850554   -2.593498   -1.332327
H       1.449564   -3.246194    2.247877
H       2.453937   -3.744716    0.887460
H       4.164323   -2.054755    1.530302
H       3.148121   -1.535945    2.889740
H       4.669980   -3.189337    3.507349
H       1.707614    0.133072    1.561980
H       0.296534   -0.759441    2.105376
