29

C      -0.030393    1.661613   -0.113959
C       0.006395    0.134536   -0.009154
C      -1.386765   -0.503645    0.009419
C      -1.359868   -2.033472    0.105154
C      -2.760814   -2.657385    0.127512
C      -2.801994   -4.197452    0.095766
C      -2.165775   -4.814351    1.350327
C      -4.250820   -4.682176   -0.108986
C      -4.403007   -6.183579   -0.374004
H       0.977884    2.087653   -0.123353
H      -0.535880    1.983255   -1.031491
H      -0.570540    2.103646    0.730873
H       0.581112   -0.276751   -0.849782
H       0.550196   -0.157683    0.899132
H      -1.960443   -0.096121    0.853914
H      -1.933907   -0.205740   -0.896231
H      -0.795800   -2.438952   -0.746966
H      -0.801084   -2.322777    1.003961
H      -3.302295   -2.302921    1.016987
H      -3.323122   -2.277345   -0.736525
H      -2.217391   -4.526695   -0.777445
H      -2.168746   -5.907309    1.310709
H      -1.125927   -4.499076    1.473994
H      -2.714573   -4.512549    2.251305
H      -4.847760   -4.402959    0.770745
H      -4.684139   -4.130927   -0.953532
H      -5.446687   -6.438471   -0.584134
H      -3.805987   -6.494266   -1.239175
H      -4.086466   -6.788623    0.480990
