18

O       0.128879    1.471729   -0.142930
C      -0.009978    0.095127   -0.021704
C       0.014362   -0.626278    1.362400
C      -1.168976    0.118812    2.038414
C      -2.133241    0.132950    1.101435
C      -1.437509   -0.634662   -0.017271
C      -1.708872   -1.576487   -1.193843
C      -0.575391   -2.460377   -0.559225
N      -0.809048   -1.757892    0.762595
H      -0.472779    1.869380    0.501601
H       0.678107   -0.335459   -0.748744
H       0.908941   -0.826649    1.953812
H      -1.174141    0.523476    3.040295
H      -3.131598    0.543866    1.134849
H      -2.685834   -2.063385   -1.150740
H      -1.536998   -1.180249   -2.196388
H      -0.779697   -3.529568   -0.472286
H       0.399905   -2.329808   -1.039022
