18

C      -0.130746    1.521869    0.109876
C       0.050271    0.000958    0.026914
O       0.720155   -0.406228   -1.166288
C       2.081437   -0.037241   -1.247911
C       2.848014   -0.285566    0.016428
C       2.235008   -0.562159    1.173323
C       0.778792   -0.552046    1.239062
N       0.047585   -0.918617    2.226932
O       0.805941   -1.377317    3.313096
H       0.823774    2.038086    0.250864
H      -0.598198    1.891506   -0.807460
H      -0.773696    1.769070    0.958852
H      -0.933061   -0.471389   -0.032562
H       2.503233   -0.632215   -2.067116
H       2.196329    1.021415   -1.546076
H       3.931610   -0.232988   -0.047929
H       2.786348   -0.778852    2.079212
H       0.123935   -1.599223    3.955286
