20

C       0.006031    1.566184   -0.002440
C      -0.002319    0.035770    0.013984
C      -1.410084   -0.550397    0.019431
C      -1.413563   -2.076791   -0.060717
N      -2.761981   -2.578012    0.161517
C      -3.753895   -1.915893    0.821283
O      -4.850023   -2.398249    1.035150
C      -3.422637   -0.483733    1.239459
O      -2.047585   -0.155928    1.227000
H       1.028816    1.952432    0.028321
H      -0.470925    1.954908   -0.908976
H      -0.536846    1.960798    0.859730
H       0.533015   -0.356363   -0.859492
H       0.524721   -0.332495    0.902375
H      -1.980245   -0.151994   -0.839071
H      -1.067455   -2.397920   -1.049969
H      -0.714445   -2.479459    0.686353
H      -2.977536   -3.536910   -0.070892
H      -3.998430    0.188695    0.581851
H      -3.785789   -0.340721    2.259358
