20

C       0.129309    1.524162    0.123613
C      -0.075717    0.020829   -0.130381
C       0.726900   -0.496141   -1.286258
N       0.141111   -0.801229   -2.442137
N       1.152955   -1.203938   -3.240809
C       2.366965   -1.191894   -2.631863
C       3.637434   -1.617601   -3.284316
C       2.129621   -0.723894   -1.350943
N       3.126474   -0.570620   -0.346913
H       1.179672    1.749579    0.335859
H      -0.165806    2.107451   -0.753638
H      -0.466290    1.863808    0.976999
H       0.180297   -0.536835    0.780687
H      -1.131746   -0.181086   -0.333036
H       0.943188   -1.492626   -4.180866
H       4.010444   -0.875174   -4.000628
H       4.399339   -1.750987   -2.512375
H       3.521248   -2.565037   -3.822346
H       3.533707    0.359752   -0.353510
H       2.735717   -0.713273    0.578004
