16

O      -0.093509    1.303642   -0.332133
C      -0.063310   -0.059281   -0.073394
C      -0.291314   -0.465966    1.341361
C      -1.362809   -0.779689    0.296515
C      -2.592899   -0.051184    0.267234
C      -3.625889    0.564359    0.203176
C      -4.877239    1.313515    0.133169
C      -5.034126    2.049913   -1.129717
N      -5.159788    2.630603   -2.119798
H      -0.624085    1.454176   -1.122779
H       0.645659   -0.635640   -0.667578
H       0.266064   -1.300745    1.749789
H      -0.513606    0.335427    2.035339
H      -1.432329   -1.817165   -0.017501
H      -5.737421    0.640699    0.245266
H      -4.945116    2.033966    0.958763
