17

C       0.161557    1.242234    0.275504
O      -0.018903   -0.029247   -0.329390
C      -1.275446   -0.578700   -0.099204
C      -1.524585   -1.968838   -0.737749
C      -2.233445   -2.462442    0.571896
C      -1.976204   -3.788793    1.076378
C      -1.732863   -4.884573    1.506572
C      -1.555594   -1.240465    1.274680
O      -1.220127   -1.011405    2.395702
H       1.164418    1.580019    0.006589
H      -0.574477    1.968953   -0.101574
H       0.076820    1.183123    1.366562
H      -2.085911    0.131047   -0.344212
H      -2.117745   -1.994265   -1.650771
H      -0.576497   -2.486995   -0.889068
H      -3.312315   -2.268775    0.514583
H      -1.522060   -5.852353    1.889181
