17

C      -0.091233    1.584138   -0.012521
C       0.006233    0.047086    0.002322
C       0.846835   -0.520339   -1.138419
C       1.859032   -1.253597   -0.662855
N       1.805750   -1.266857    0.743612
C       2.460073   -1.761428    1.833293
N       1.872854   -1.374673    2.946401
C       0.795093   -0.598077    2.562417
C       0.733630   -0.518099    1.196880
H       0.903456    2.035351    0.036559
H      -0.585624    1.932378   -0.924890
H      -0.670519    1.939299    0.844668
H      -1.013311   -0.359987   -0.059649
H       0.642025   -0.335284   -2.183432
H       2.639084   -1.789328   -1.183092
H       3.337260   -2.385616    1.759174
H       0.140483   -0.155440    3.297289
