20

O      -0.158357    1.482167   -0.020874
C       0.017568    0.075791   -0.074394
C      -1.356699   -0.558184    0.117988
C      -1.343815   -2.096508    0.091012
C      -0.819695   -2.692567    1.416554
O      -0.313389   -4.004321    1.295456
C      -2.771537   -2.597345   -0.247107
C      -2.920455   -4.051112   -0.209572
N      -3.024171   -5.201832   -0.153804
H       0.702319    1.898703   -0.122935
H       0.433560   -0.240144   -1.045060
H       0.716631   -0.266431    0.703944
H      -1.779104   -0.202092    1.066698
H      -2.010180   -0.170757   -0.672524
H      -0.667115   -2.444170   -0.699182
H       0.018595   -2.087011    1.774156
H      -1.609336   -2.623047    2.184271
H      -1.043289   -4.611187    1.129302
H      -3.489118   -2.167835    0.463510
H      -3.067024   -2.247774   -1.242287
