15

O      -0.797042    1.532842    0.146453
C      -0.779788    0.195067    0.543560
C      -1.320311   -0.717574   -0.540066
O      -1.639971   -0.267564   -1.617132
C      -1.442894   -2.207131   -0.219173
C      -2.676393   -2.468722    0.655591
O      -2.777757   -2.015660    1.774309
C      -3.709319   -3.282837    0.055366
C      -4.558669   -3.965421   -0.456257
H      -1.089017    1.524766   -0.778074
H       0.244519   -0.148134    0.777136
H      -1.370760    0.031575    1.457402
H      -1.496483   -2.764858   -1.154093
H      -0.571791   -2.528594    0.361994
H      -5.319304   -4.563802   -0.897102
