21

C      -0.469812    1.373790    0.513829
C      -0.408549   -0.131461    0.783523
C       1.011019   -0.618775    1.037120
O       0.977612   -2.010850    1.280475
C       2.242116   -2.569836    1.521486
C       2.065815   -4.067403    1.821300
O       3.335925   -4.710747    1.858021
C       1.302650   -4.293841    3.049273
C       0.734180   -4.478087    4.092220
H       0.122184    1.647156   -0.366689
H      -1.498646    1.698584    0.334528
H      -0.084173    1.948556    1.363217
H      -1.023787   -0.388878    1.653080
H      -0.820329   -0.687834   -0.066217
H       1.654649   -0.398596    0.167523
H       1.449915   -0.092222    1.902432
H       2.902312   -2.476865    0.644646
H       2.742241   -2.079613    2.374325
H       1.530270   -4.512123    0.974647
H       3.712424   -4.558946    2.731660
H       0.212052   -4.647635    5.001433
