14

C      -0.114758    1.515075   -0.068817
C       1.432633    1.719289    0.044167
C       2.148770    2.122796    1.383326
O       2.263564    0.904494    2.212509
C       1.566762   -0.032858    1.523402
C       1.392473    0.230307    0.210245
N       0.043342   -0.051866   -0.059214
N      -0.431014   -0.741285    1.091974
N       0.491068   -0.764819    1.995514
H      -0.690504    1.815197    0.806539
H      -0.579679    1.848667   -0.994871
H       1.892194    2.180343   -0.830055
H       3.161839    2.474956    1.173944
H       1.622332    2.879180    1.975757
