19

C      -0.066964    1.430500    0.038785
C       0.061459   -0.054080    0.017361
C       0.041696   -0.916701   -1.018654
C       0.043666   -2.294502   -0.378083
C       1.064594   -2.081380    0.780059
C       0.081597   -0.958789    1.256577
C       0.084730   -0.376397    2.648052
C      -1.030957   -1.963935    0.731461
O      -2.114481   -2.317943    1.061978
H       0.769857    1.905716    0.565212
H      -0.103299    1.833955   -0.977091
H      -0.981558    1.744971    0.557636
H      -0.092959   -0.704850   -2.070539
H       0.017472   -3.185726   -0.999884
H       1.127185   -2.924893    1.476422
H       2.055950   -1.737314    0.472628
H       1.002153    0.189814    2.842819
H      -0.763436    0.299523    2.796586
H       0.011222   -1.166425    3.401471
