20

O      -0.118333    1.487813    0.343254
C      -0.071400    0.104123    0.018456
C       0.665840   -0.722580    1.082308
O      -0.295048   -1.112385    2.059002
C      -1.587724   -0.661196    1.663033
C      -1.505132   -0.444061    0.143370
C      -2.585566    0.429593   -0.442921
C      -3.041687    0.229942   -1.840107
N      -3.923351   -0.129960   -0.713959
H       0.783975    1.813750    0.412657
H       0.349633   -0.047644   -0.984822
H       1.123151   -1.619868    0.640686
H       1.464553   -0.135024    1.556363
H      -2.320088   -1.420613    1.952972
H      -1.842576    0.280716    2.169585
H      -1.526825   -1.424737   -0.351348
H      -2.615822    1.436006   -0.037381
H      -3.376254    1.077400   -2.431369
H      -2.582291   -0.568921   -2.417769
H      -3.906762   -1.139414   -0.582348
