18

C       0.008027    1.544920   -0.044297
C       0.008167    0.090879    0.019704
C       0.006781   -1.113380    0.068594
C       0.028064   -2.563392    0.121165
C       0.193104   -3.318855    1.437063
C      -1.221729   -3.455762    2.033363
C      -2.151343   -2.776938    1.044069
N      -1.295719   -3.319882   -0.087206
C      -0.757681   -4.356723    0.928348
H       0.945276    1.923684   -0.466730
H      -0.809513    1.910543   -0.675456
H      -0.114293    1.990701    0.948985
H       0.722743   -2.954942   -0.629037
H       1.080352   -3.448975    2.043930
H      -1.362281   -3.692540    3.080787
H      -3.133002   -3.254912    0.995749
H      -2.260615   -1.688672    1.050367
H      -0.707318   -5.424345    0.772900
