17

N      -0.074098    1.229809   -0.433063
C       0.003057    0.012590   -0.127730
N       1.066087   -0.939259    0.074207
C       0.165954   -1.755734    0.898643
C      -0.420183   -3.169846    1.165135
C      -1.417802   -2.241707    1.988584
C      -0.191708   -1.394810    2.368584
O      -2.089992   -1.355989    1.042963
C      -1.003636   -1.134183    0.150607
H       0.848493    1.652940   -0.555499
H       1.975443   -0.643440    0.409434
H      -0.808684   -3.731136    0.313771
H       0.148761   -3.812836    1.839178
H      -2.134604   -2.646159    2.699457
H       0.476682   -1.866919    3.091956
H      -0.383909   -0.348673    2.615376
H      -1.213947   -1.617119   -0.810404
