17

C      -0.014441    1.539560   -0.008090
C       1.423138    2.062438    0.061924
O       2.101110    1.667754    1.260710
C       1.924507    0.362130    1.561133
N       2.679054   -0.234627    2.470300
N       2.175625   -1.494221    2.501799
C       1.144502   -1.687442    1.644818
C       0.938970   -0.486121    0.997610
C      -0.037939   -0.002040   -0.031675
H      -0.562745    1.908548    0.866264
H      -0.499687    1.952432   -0.898528
H       1.996696    1.707605   -0.807706
H       1.447921    3.154608    0.063843
H       2.590061   -2.160862    3.128157
H       0.644050   -2.640311    1.565635
H      -1.050934   -0.371587    0.161904
H       0.234711   -0.358025   -1.034586
