17

C       0.172617    1.392158   -0.411967
C       1.255056    2.149609    0.384783
N       2.293495    1.318891    0.998405
C       2.144001    0.069134    0.873377
N       2.909103   -0.906489    1.516542
C       2.103150   -2.059859    1.623142
C       0.973407   -1.972489    0.909111
C       1.008360   -0.665394    0.163180
O      -0.153771    0.137430    0.180205
H      -0.753258    1.972487   -0.444444
H       0.507765    1.227738   -1.449686
H       1.728422    2.891230   -0.270778
H       0.789674    2.718095    1.200622
H       3.498369   -0.615241    2.283914
H       2.469638   -2.895022    2.204410
H       0.251245   -2.757905    0.748353
H       1.296553   -0.853685   -0.890559
