17

C       0.025271    1.511001    0.064462
C       0.024099    0.021298   -0.026979
C       0.138589   -0.793655   -1.117520
O       0.344683   -0.711113   -2.460814
C       0.102842   -2.035144   -2.977694
C       0.304493   -3.011971   -1.784632
N       0.067468   -2.091812   -0.689124
C      -0.066873   -2.042873    0.674302
N      -0.106884   -0.799427    1.090045
H       0.863261    1.873645    0.670348
H       0.106671    1.959506   -0.929454
H      -0.894224    1.880284    0.531670
H      -0.928319   -2.089854   -3.346915
H       0.793026   -2.211623   -3.803947
H      -0.411145   -3.837191   -1.806403
H       1.320012   -3.423304   -1.748060
H      -0.153290   -2.926012    1.288073
