19

O      -0.477144    0.976495   -0.336795
C      -0.014603   -0.346305   -0.107218
C       0.970328   -0.773659   -1.199755
O       0.335729   -0.812606   -2.477076
C       0.361568    0.307555   -3.226362
O      -0.222424    0.403820   -4.262224
C       0.582793   -0.549267    1.277117
C       1.392720    0.526724    1.963444
C       0.016803    0.170941    2.469336
H       0.270094    1.578394   -0.243540
H      -0.910600   -0.970446   -0.206473
H       1.834004   -0.093241   -1.217567
H       1.340860   -1.785270   -1.014349
H       0.998488    1.100607   -2.790306
H       0.917891   -1.569074    1.448366
H       2.259219    0.222217    2.539237
H       1.513332    1.492647    1.481864
H      -0.776875    0.883461    2.276147
H      -0.069559   -0.368586    3.405382
