15

C      -0.077999    0.832399   -0.595440
O       0.113973    0.972272    0.799961
C       0.799855   -0.042925    1.375125
C       1.365140   -1.201024    0.915091
C       1.958128   -1.856835    2.056989
C       1.718585   -1.060546    3.141024
O       2.022649   -1.143418    4.464541
N       1.013527    0.046143    2.733329
H      -0.648855   -0.076614   -0.826008
H      -0.637559    1.709717   -0.923050
H       0.883550    0.789799   -1.123620
H       1.369568   -1.557406   -0.101302
H       2.488816   -2.796127    2.056618
H       2.511396   -1.959341    4.606416
H       0.703884    0.796926    3.325159
