18

C      -0.254684    1.331667   -0.437718
O      -0.126123   -0.027518   -0.088474
C       0.717153   -0.750453   -0.963181
C       0.707412   -2.203358   -0.513060
N      -0.638920   -2.741187   -0.532687
C      -0.963246   -3.899337   -1.171294
O      -0.163421   -4.612927   -1.751373
C      -2.384765   -4.220678   -1.097575
C      -3.549371   -4.516295   -1.055993
H       0.715670    1.850749   -0.410206
H      -0.682317    1.454711   -1.444756
H      -0.923817    1.794900    0.291136
H       0.354339   -0.670682   -2.000871
H       1.745367   -0.354270   -0.932491
H       1.314770   -2.820257   -1.178167
H       1.128607   -2.269403    0.498294
H      -1.366859   -2.190424   -0.105531
H      -4.575877   -4.789600   -1.026540
