21

C       0.023684    1.571625   -0.203939
C       0.040889    0.067113    0.088545
C      -1.344197   -0.570265    0.029905
C      -2.142485   -0.703426   -1.312778
C      -1.231244   -1.526186   -2.268103
C      -1.441846   -2.678838   -1.291780
C      -2.731659   -2.068542   -0.769003
C      -1.534856   -2.082703    0.132059
O      -1.384805   -2.871205    1.256682
H       1.025748    2.005438   -0.130173
H      -0.352897    1.775010   -1.212310
H      -0.622901    2.103666    0.502729
H       0.720114   -0.437131   -0.608753
H       0.456692   -0.104805    1.090575
H      -2.002126   -0.093544    0.768120
H      -2.729275    0.134156   -1.683040
H      -1.733548   -1.718704   -3.220908
H      -0.217183   -1.159928   -2.463975
H      -1.225770   -3.732882   -1.417289
H      -3.730940   -2.461837   -0.657744
H      -0.467283   -3.160816    1.304458
