15

O      -0.166153    0.005758   -0.031076
C      -0.030714    1.204423   -0.030997
C       1.280918    1.877058   -0.030993
C       1.820829    2.966758    0.854817
C       3.147208    2.216830    1.009277
C       2.731889    1.345267   -0.226480
N       3.252525    2.058565   -1.406463
C       2.548691    3.113121   -1.482685
N       1.443789    3.246887   -0.565499
H      -0.894325    1.904044   -0.013856
H       1.311152    3.568163    1.597684
H       4.085425    2.770380    0.923875
H       3.128659    1.633706    1.932386
H       2.940788    0.280165   -0.224474
H       2.720352    3.917764   -2.189346
