18

C       0.000565    1.530276    0.013028
C       1.523475    1.792648    0.000041
C       2.040913    1.420877    1.413433
C       1.705552   -0.052039    1.735594
O       0.400079   -0.459782    1.329892
C       0.025298   -0.006561    0.017302
C       1.120448   -0.283439   -1.009935
C       1.975976    0.740489   -1.009299
H      -0.513328    1.934847    0.889078
H      -0.473871    1.910028   -0.896537
H       1.803895    2.815266   -0.265440
H       3.125901    1.555415    1.497277
H       1.573505    2.090806    2.144150
H       2.458949   -0.697275    1.263560
H       1.747674   -0.233053    2.813586
H      -0.934229   -0.486066   -0.185042
H       1.220413   -1.214583   -1.554006
H       2.903004    0.804566   -1.568081
