17

O      -0.279058    0.130498    0.201263
C      -0.049109    1.284942   -0.063133
C       1.306058    1.891845   -0.033935
C       1.448401    3.336586    0.344336
N       1.557463    2.955185   -1.053810
C       2.944695    2.746510   -1.522978
C       3.669545    1.830018   -0.509925
C       2.528979    1.004165    0.123212
H      -0.855007    1.992607   -0.358725
H       0.564293    3.919419    0.589344
H       2.340195    3.611746    0.902974
H       2.876420    2.265940   -2.504256
H       3.436908    3.714046   -1.660216
H       4.424157    1.203838   -0.991346
H       4.188604    2.420826    0.250351
H       2.726054    0.737650    1.164796
H       2.352287    0.070110   -0.418663
