15

O      -0.152884    1.300864    0.031274
N      -0.000033   -0.098792    0.014831
C      -1.124904   -0.679275    0.017711
C      -2.560812   -0.170899    0.026370
C      -3.208853   -1.577504    0.022529
C      -2.418945   -2.365594    1.092233
C      -1.342330   -2.175738   -0.008051
O      -2.419761   -2.266462   -1.003466
H       0.760922    1.605280    0.009680
H      -2.794406    0.440991    0.902375
H      -2.801865    0.398648   -0.874587
H      -4.286190   -1.659310   -0.113235
H      -2.257948   -1.923587    2.078812
H      -2.743313   -3.404362    1.158061
H      -0.495216   -2.837242   -0.172007
