13

C       0.024416    1.502738    0.035422
C      -0.027135    0.005835    0.041030
C      -1.167702   -0.703816   -0.159546
F      -2.331758   -0.113509   -0.377412
C      -1.167166   -2.154137   -0.144925
O      -2.098540   -2.911556   -0.306923
N       0.139475   -2.610194    0.097549
N       1.260215   -1.898141    0.294487
N       1.185523   -0.629917    0.268197
H       0.719002    1.848337   -0.736432
H      -0.959929    1.933256   -0.148001
H       0.403862    1.865683    0.995597
H       0.274356   -3.613762    0.132155
