19

C      -0.250459    1.394281   -0.092347
C       0.070057   -0.088424    0.048185
C       0.880799   -0.802468   -1.060148
O       1.940746   -1.108952   -0.073713
C       1.271585   -0.451863    0.924748
O       1.626627   -0.275703    2.046581
C       0.319244   -2.032240   -1.694106
C      -0.341296   -1.928759   -3.050455
C       0.984824   -2.625845   -2.910567
H       0.631112    1.963627   -0.403298
H      -1.040825    1.555841   -0.831506
H      -0.590621    1.799778    0.864664
H      -0.819572   -0.654861    0.341121
H       1.289381   -0.119532   -1.812803
H      -0.120261   -2.733332   -0.989822
H      -1.228130   -2.526038   -3.227618
H      -0.357336   -0.958766   -3.536784
H       1.866438   -2.126128   -3.297633
H       1.013800   -3.705971   -2.993753
