20

C      -0.052700    1.525233    0.007031
C       0.009496    0.006121    0.003052
C       1.347615   -0.687362   -0.244002
C       0.743403   -0.722084    1.121504
C       1.324678   -0.106758    2.403356
C       1.144605   -1.493557    3.091518
C       0.294970   -1.978841    1.879052
C      -1.165771   -0.649788   -0.511065
N      -2.119908   -1.174336   -0.904459
H       0.864033    1.939010    0.435135
H      -0.161568    1.916259   -1.008965
H      -0.898449    1.884446    0.601221
H       1.343363   -1.598768   -0.832447
H       2.194773   -0.032464   -0.424734
H       2.344772    0.280662    2.339380
H       0.684580    0.669285    2.833599
H       2.087191   -2.036752    3.187254
H       0.645893   -1.489615    4.062223
H      -0.780028   -1.990214    2.079737
H       0.572746   -2.938153    1.435962
