16

O      -0.004529    1.474636   -0.074783
C       1.323274    1.901421    0.069364
C       2.414165    1.169882   -0.685460
C       2.165261    0.877385    0.792184
C       1.343584   -0.398849    0.723815
C       0.047254    0.060547   -0.035075
C       0.642145   -0.596852   -1.267491
C       2.029495   -0.091556   -1.423591
N       1.782275   -1.223162   -0.490884
H       1.396835    2.968537    0.241086
H       3.285873    1.723276   -1.012555
H       2.858227    1.101686    1.591906
H       1.253936   -0.982547    1.636209
H      -0.912871   -0.328410    0.302137
H       0.101833   -1.126852   -2.044779
H       2.571174   -0.355649   -2.324645
