22

C      -0.169409    1.318016   -0.224149
C       1.253550    0.974754    0.043889
N       0.219631   -0.056956    0.073382
C      -0.152716   -0.566308    1.389447
C      -1.592156   -1.094042    1.373642
C      -1.915219   -1.806616    2.694523
C      -0.841526   -2.851305    3.006401
O       0.455759   -2.277965    3.022920
C       0.801900   -1.704887    1.775969
H      -0.696783    1.877369    0.547357
H      -0.512824    1.505697   -1.237360
H       1.969574    0.905910   -0.769847
H       1.671597    1.305315    0.993798
H      -0.069964    0.219698    2.164452
H      -2.295315   -0.274922    1.186497
H      -1.688944   -1.794747    0.534265
H      -1.949006   -1.079640    3.515304
H      -2.898905   -2.287413    2.645840
H      -0.990836   -3.294330    3.995441
H      -0.883487   -3.664810    2.260691
H       0.789464   -2.464311    0.976112
H       1.827037   -1.336182    1.876710
