19

C      -0.000626    1.631661    0.089524
C      -0.076193    0.099626   -0.042328
C       0.655451   -0.452778   -1.229758
C       0.127312   -0.780774   -2.463798
O      -1.124391   -0.742814   -2.974950
N       1.136677   -1.226286   -3.240108
N       2.330510   -1.218645   -2.586516
C       2.041640   -0.750834   -1.377272
C       3.121111   -0.601324   -0.352064
H       1.037896    1.964620    0.178459
H      -0.427078    2.123902   -0.790594
H      -0.544925    1.980238    0.973538
H       0.315638   -0.358700    0.874018
H      -1.133127   -0.203989   -0.081849
H      -1.720072   -0.409534   -2.295875
H       1.077765   -1.554739   -4.188121
H       3.269716    0.446397   -0.066067
H       2.885758   -1.155203    0.564271
H       4.062534   -0.983058   -0.752847
