17

C       0.026938    1.625627    0.029528
C       0.041093    0.104856    0.006725
O       0.669655   -0.410364    1.198301
C       1.989665   -0.685710    1.150673
O       2.599569   -1.075884    2.098711
C      -1.384845   -0.488123   -0.016977
O      -2.087175    0.008135   -1.119334
C      -1.357004   -2.007968   -0.055612
O      -1.897912   -2.610060   -0.952441
H       1.046069    2.021358   -0.008864
H      -0.531864    1.999352   -0.830766
H      -0.449992    1.985496    0.946137
H       0.583008   -0.257742   -0.877262
H       2.427521   -0.520616    0.147026
H      -1.873842   -0.199588    0.930639
H      -2.376278   -0.775983   -1.615481
H      -0.830408   -2.522968    0.767129
