14

O      -0.148731    1.415324   -0.062802
C      -0.065963    0.008107   -0.002353
C       0.716539   -0.452486    1.157167
C       1.392423   -0.822853    2.077315
C      -1.445512   -0.520816    0.085008
N      -2.507797   -0.971069    0.120884
C       0.579392   -0.536452   -1.301251
C       0.310871    0.120677   -2.579841
O       1.538962    0.351125   -1.855986
H       0.694667    1.698598   -0.451020
H       1.978313   -1.144932    2.903509
H       0.864648   -1.585019   -1.264179
H       0.423124   -0.444263   -3.501408
H      -0.367966    0.968102   -2.608939
