14

C       0.090250    1.454504    0.308998
N       1.155824    2.156322   -0.407410
C       2.195719    1.446496   -0.930174
N       3.345798    1.884032   -1.361432
O       3.983493    0.737188   -1.854769
N       3.205576   -0.375199   -1.705933
C       2.105834    0.034167   -1.139852
C       0.924204   -0.688041   -0.728267
C      -0.015584   -0.005577   -0.061461
H       0.223053    1.526157    1.403853
H      -0.864729    1.950552    0.090327
H       1.336019    3.112256   -0.144450
H       0.823947   -1.742786   -0.953776
H      -0.914484   -0.504195    0.286551
