13

O      -0.026931    0.057915    0.027879
C      -0.042350    1.246642    0.082535
C      -1.083103    2.313445    0.038839
C      -0.414250    3.558666    0.618867
N       0.877840    3.119487    1.203683
C       1.059463    2.353068   -0.089301
C       2.378249    2.088845   -0.578986
N       3.439167    1.881127   -0.988927
C      -0.093738    3.195493   -0.785824
H      -2.152426    2.221088   -0.083882
H      -1.004394    4.368800    1.025654
H       1.510736    3.919496    1.168748
H      -0.224066    3.613494   -1.773501
