19

C       0.086156    1.536424   -0.130250
C       0.037850    0.016735    0.018813
O       0.772545   -0.427745    1.147018
C      -1.417271   -0.543192    0.043748
C      -1.417982   -2.083593   -0.031409
C      -2.118681   -0.074521    1.234578
C      -2.672679    0.309667    2.241757
C      -3.303740    0.736367    3.369816
C      -3.862296    1.117134    4.370485
H       1.125369    1.874984   -0.131453
H      -0.385728    1.858043   -1.064734
H      -0.437205    2.026603    0.697894
H       0.537338   -0.446481   -0.840334
H       0.344943   -0.060772    1.931020
H      -1.937017   -0.146088   -0.839514
H      -2.433600   -2.481001    0.031755
H      -0.975355   -2.409555   -0.977778
H      -0.824466   -2.495529    0.787302
H      -4.355001    1.448853    5.250441
