13

O      -0.047124    1.353604    0.072604
C       0.068878   -0.013859    0.067917
C       0.791531   -0.950189    1.066352
C       0.100013   -1.922061    0.086773
C      -1.135318   -0.986376   -0.103638
O      -1.080779   -1.014078   -1.558941
C       0.315512   -0.994826   -1.146555
H       0.833783    1.741912    0.034099
H       1.885607   -0.939139    1.050787
H       0.419781   -0.944412    2.094516
H       0.089803   -3.008320    0.076169
H      -2.105237   -0.993830    0.392246
H       1.093623   -1.010377   -1.909650
