15

C      -0.067048    1.550035    0.001611
C       0.057944    0.025136   -0.037928
N       0.854801   -0.461766   -1.168385
C       1.804187   -1.160044   -0.667888
N       2.838147   -1.734142   -1.371957
N       1.789171   -1.290010    0.724725
C       0.740436   -0.524758    1.228658
O       0.476957   -0.349360    2.391829
H       0.921203    2.017899    0.037899
H      -0.580959    1.905603   -0.894546
H      -0.630559    1.855191    0.887387
H      -0.949883   -0.409886   -0.090937
H       2.669468   -1.719536   -2.368637
H       3.143991   -2.638629   -1.041657
H       2.531698   -1.657210    1.298494
