20

C      -0.003163    1.576073   -0.046863
C       0.037434    0.044706    0.013537
C       0.773689   -0.621712   -1.176461
C       1.523060   -1.841468   -0.589683
O       2.790275   -2.095395   -1.187737
C       1.585924   -1.535771    0.898122
C       2.430356   -2.363897    1.813497
C       0.783374   -0.514998    1.205126
H       1.010097    1.992857   -0.067451
H      -0.528648    1.922105   -0.943336
H      -0.519704    1.994150    0.823971
H      -1.002743   -0.314561    0.044468
H       0.112382   -0.884332   -2.006003
H       1.524258    0.074645   -1.572971
H       0.966377   -2.773267   -0.760108
H       3.323704   -1.300496   -1.073380
H       3.465068   -2.407773    1.456692
H       2.425878   -1.974769    2.835059
H       2.074105   -3.402160    1.841553
H       0.630301   -0.129667    2.209620
