21

C      -0.283112    1.485865    0.005978
C       0.044925   -0.000596   -0.043700
C      -1.088203   -0.937582    0.442260
O      -0.292802   -1.428182    1.538986
C       0.836753   -0.595894    1.161405
C       2.047366   -1.334467    0.622670
C       1.761126   -2.566289   -0.199520
C       2.003304   -1.257575   -0.897084
C       0.804985   -0.414858   -1.330106
H       0.626153    2.090982   -0.083521
H      -0.951815    1.769424   -0.815243
H      -0.776403    1.754435    0.946019
H      -1.993090   -0.425569    0.794691
H      -1.381732   -1.738999   -0.248926
H       1.099726    0.091880    1.973103
H       2.982302   -1.271004    1.167200
H       2.543965   -3.314488   -0.258115
H       0.758032   -2.975101   -0.152823
H       2.921853   -1.153799   -1.464726
H       0.150708   -0.949320   -2.029371
H       1.160078    0.478260   -1.855867
