19

C       0.063838    1.573292    0.042820
C      -0.021719    0.074392    0.047741
C       1.143982   -0.805221   -0.377288
C       0.605435   -0.980447    0.999668
O       1.399950   -0.837045    2.114256
C      -0.666368   -1.796259    0.969938
O      -1.563093   -1.393884    2.032491
C      -2.275215   -0.493615    1.149828
C      -1.302724   -0.757769   -0.015668
H       1.039340    1.903736    0.414345
H      -0.062620    1.983283   -0.966609
H      -0.702339    2.027227    0.681362
H       1.033415   -1.576391   -1.138193
H       2.098076   -0.287622   -0.406913
H       0.796394   -0.711621    2.858608
H      -0.630376   -2.883140    0.849565
H      -3.296598   -0.851855    0.970854
H      -2.320568    0.529016    1.542294
H      -1.727135   -1.011777   -0.988682
