21

C       0.021977    1.298360   -0.352297
O       0.010903    0.004053    0.206712
C      -1.244473   -0.623643    0.137721
C      -1.721623   -1.268644   -1.198953
C      -0.558976   -2.220154   -1.586406
C      -0.933632   -3.006894   -0.331806
C      -2.329998   -2.426537   -0.313612
C      -1.341405   -2.004004    0.759010
C      -1.318962   -2.340617    2.220124
H       1.023598    1.710192   -0.206474
H      -0.200283    1.286797   -1.429979
H      -0.708350    1.959509    0.140945
H      -2.027283    0.037453    0.544493
H      -2.252855   -0.685131   -1.947846
H      -0.789992   -2.785031   -2.493844
H       0.442405   -1.783652   -1.653594
H      -0.632252   -4.009335   -0.053911
H      -3.311354   -2.871487   -0.241996
H      -1.582716   -3.390172    2.388865
H      -0.323765   -2.174789    2.647131
H      -2.030852   -1.724587    2.781483
