20

C       0.095079    1.499108    0.010042
C      -0.024845   -0.044178    0.062221
C       0.573428   -0.552843    1.392801
C      -1.459424   -0.391157    0.026397
N      -2.588258   -0.637975   -0.005776
C       0.624667   -0.622987   -1.207213
C       2.048818   -1.142281   -1.261646
C       0.881197   -2.078058   -1.469186
O       0.538362   -2.996113   -0.473319
H       1.152585    1.779154   -0.001765
H      -0.381812    1.904575   -0.886224
H      -0.377265    1.954340    0.884504
H       0.018623   -0.124121    2.231602
H       0.532323   -1.639034    1.455694
H       1.614298   -0.227209    1.476833
H       0.304200   -0.078148   -2.091179
H       2.673674   -0.866534   -2.104222
H       2.578408   -1.250098   -0.321905
H       0.685278   -2.424961   -2.483419
H       1.169595   -3.722600   -0.505597
