23

C      -0.233854    1.600636    0.380938
N      -0.174903    0.147023    0.373553
C       0.912113   -0.503356   -0.354780
C       0.841588   -0.582140    1.137565
C       1.874837    0.156681    1.968763
C       0.321796   -1.864900    1.770076
C       1.353817   -2.954455    1.982301
C      -0.837488   -1.749529    2.692783
N      -1.002512   -2.343920    1.352776
H       0.744319    2.099319    0.313910
H      -0.833565    1.927456   -0.474520
H      -0.732951    1.943286    1.292929
H       0.629855   -1.354531   -0.969813
H       1.682140    0.135492   -0.786753
H       2.246168    1.054008    1.469273
H       1.457017    0.449992    2.938272
H       2.738058   -0.486087    2.163470
H       2.101365   -2.671530    2.730858
H       0.859264   -3.868063    2.319901
H       1.879762   -3.182058    1.047889
H      -0.945145   -2.440176    3.525412
H      -1.253486   -0.759345    2.864305
H      -1.403719   -1.624613    0.748773
