19

C      -0.011423    1.621150   -0.186026
C       1.553257    1.426387    0.029484
C       1.143965    0.145907    0.801217
C       0.778783    0.209503    2.364185
C      -0.709375   -0.170543    2.358687
C      -0.587485   -0.986147    1.068212
C      -0.123492    0.066127    0.018907
C       1.054411   -1.349849    1.229903
O       1.400592   -1.093314    2.576138
H      -0.447510    2.204639    0.629022
H      -0.344586    2.036738   -1.140068
H       2.059398    1.221146   -0.917460
H       2.101124    2.200336    0.573298
H       1.161709    0.983018    3.029452
H      -0.960071   -0.755231    3.246160
H      -1.401071    0.670108    2.262757
H      -1.331430   -1.750390    0.844362
H       0.080604   -0.426413   -0.938409
H       1.474267   -2.249325    0.779662
