19

C      -0.031363    1.521189    0.102495
C       0.023829    0.006519   -0.014803
C       0.750296   -0.480789   -1.274738
C       1.067743   -1.945774   -1.179673
C       1.002557   -2.612302   -0.018001
C       0.643928   -1.883070    1.266875
O       0.696093   -0.480998    1.142547
C       1.242759   -4.007444    0.094418
C       1.433447   -5.186560    0.255927
H       0.980860    1.933387    0.159939
H      -0.536092    1.956852   -0.765175
H      -0.572465    1.815343    1.005576
H      -1.002854   -0.399037   -0.028239
H       0.130197   -0.288474   -2.159867
H       1.674115    0.098785   -1.418133
H       1.347994   -2.472508   -2.086849
H      -0.354717   -2.213828    1.604040
H       1.354459   -2.152545    2.055077
H       1.604561   -6.227444    0.376529
