13

C      -0.035878    1.514090    0.042537
C      -0.011683    0.021487   -0.002928
C      -0.023404   -0.819151   -1.067229
O       0.008611   -2.102973   -0.668745
N       0.043156   -2.151928    0.709779
C       0.031406   -0.890736    1.105619
C       0.058962   -0.549449    2.481061
C       0.080966   -0.205447    3.633322
H       0.856963    1.909933    0.537781
H      -0.080790    1.937226   -0.963873
H      -0.902500    1.878904    0.603612
H      -0.052679   -0.658441   -2.133953
H       0.101175    0.078866    4.656473
