19

C       0.145877    1.463060    0.127420
C      -0.045651   -0.016870   -0.048100
C       0.455739   -0.750070   -1.317495
C      -0.691621   -1.776211   -1.159195
C      -0.430282   -2.766937    0.023458
O       0.827481   -3.357408    0.174850
C      -0.792202   -1.648273    1.024531
O       0.347739   -0.763070    1.150471
C      -1.392829   -0.807854   -0.128656
H       1.209535    1.692338    0.259316
H      -0.214303    2.007046   -0.751226
H      -0.391368    1.822691    1.009786
H       0.309260   -0.128605   -2.206701
H       1.483629   -1.124834   -1.306217
H      -1.158896   -2.174312   -2.058932
H      -1.187508   -3.558507    0.022233
H       1.389756   -2.666694    0.553086
H      -1.239094   -1.884307    1.992263
H      -2.392100   -0.386205   -0.186647
