23

C       0.191517    1.442371   -0.021665
C       0.016244   -0.046640   -0.118127
C       0.375772   -0.914873   -1.349921
C      -0.431534   -1.975237   -0.538106
C       0.503573   -2.105442    0.666695
O       0.767639   -0.708061    0.930934
C      -1.368832   -0.795401   -0.061166
C      -2.038655   -0.891646    1.311324
C      -2.418791   -0.367333   -1.092014
H       1.246079    1.713680   -0.131839
H      -0.380237    1.950482   -0.803588
H      -0.150520    1.807581    0.952073
H      -0.089702   -0.605662   -2.282687
H       1.440756   -1.105859   -1.503913
H      -0.824713   -2.890355   -0.982120
H       0.043971   -2.577949    1.541500
H       1.438559   -2.628763    0.433311
H      -1.310161   -0.948852    2.120831
H      -2.665124   -0.010938    1.491795
H      -2.694064   -1.768926    1.365647
H      -3.273713   -1.052446   -1.056671
H      -2.800747    0.633080   -0.857935
H      -2.059806   -0.351582   -2.122376
