15

N      -0.039451   -1.145973    0.153908
C      -0.042783    0.010755    0.118592
C      -0.064745    1.455600    0.046473
C       0.477230    2.184512    1.240391
N       1.231559    2.166986   -0.011765
C      -1.168362    2.054744   -0.782022
C      -1.739123    1.339356   -1.948860
N      -2.534426    1.524775   -0.721173
H       0.031798    3.141666    1.495776
H       0.825915    1.593733    2.082143
H       2.004090    1.507390    0.037051
H      -1.105239    3.139619   -0.808299
H      -2.081964    1.906704   -2.808765
H      -1.359256    0.346911   -2.175207
H      -2.554576    0.655161   -0.191253
