15

C      -0.144975    1.571349   -0.026091
C       0.049711    0.052657    0.052351
O      -1.187600   -0.630858    0.214320
C       0.801335   -0.479225   -1.134376
C       1.992700   -1.111997   -1.303282
C       2.052241   -1.339755   -2.704681
N       0.992777   -0.889936   -3.328799
O       0.194064   -0.334529   -2.328655
H       0.818058    2.090721   -0.048478
H      -0.696071    1.841917   -0.932260
H      -0.711199    1.909733    0.845094
H       0.631978   -0.195025    0.945340
H      -1.694241   -0.511589   -0.597383
H       2.712213   -1.381093   -0.548471
H       2.831389   -1.820459   -3.279578
