19

C       0.268967    1.603125   -0.115007
C       0.039057    0.120874    0.085942
O       0.793298   -0.699926   -0.850440
C       1.238659   -1.591219    0.204039
C       2.670603   -1.231819    0.685918
C       2.063170   -0.251318    1.735419
C       0.627392   -0.639165    1.291990
C       0.880103   -2.972043   -0.004447
C       0.594351   -4.130627   -0.155650
H       1.326897    1.864183   -0.029315
H      -0.070165    1.898508   -1.112947
H      -0.298452    2.182379    0.621544
H      -1.032865   -0.101828   -0.019911
H       3.203363   -2.075798    1.129006
H       3.280630   -0.791092   -0.104850
H       2.276059   -0.541802    2.766038
H       2.328858    0.801574    1.621794
H      -0.067843   -0.971339    2.061141
H       0.338180   -5.151282   -0.298904
