22

C      -0.177481    1.556647    0.147925
C       0.065230    0.045850    0.077475
C       0.736682   -0.456344   -1.233950
C      -0.010658   -0.034914   -2.526173
C      -1.467785   -0.495627   -2.617165
C       2.212612    0.034385   -1.323337
O       2.998952   -0.348664   -0.217921
C       0.800172   -1.926422   -1.170089
N       0.900081   -3.077460   -1.109720
H       0.750644    2.128630    0.057139
H      -0.866806    1.904701   -0.627206
H      -0.619339    1.810643    1.115899
H       0.713554   -0.256763    0.904554
H      -0.882709   -0.484073    0.211751
H       0.042622    1.056801   -2.600354
H       0.546353   -0.428498   -3.384157
H      -1.544983   -1.583827   -2.529702
H      -2.088603   -0.049896   -1.834506
H      -1.895655   -0.206609   -3.581411
H       2.645276   -0.315052   -2.272025
H       2.217561    1.127741   -1.340203
H       3.095145   -1.308186   -0.238202
