18

C      -0.002420    1.572741   -0.032705
C       0.039619    0.058068    0.046411
O       0.774799   -0.456751   -1.089119
C       1.492947   -1.576488   -0.640613
C       2.526936   -1.391422    0.481848
N       2.233132   -0.101275    1.139077
C       0.785794   -0.538902    1.241004
C       1.157349   -1.980579    0.754321
O       0.736585   -3.195906    1.248296
H       1.009298    1.972606    0.057935
H      -0.429326    1.890353   -0.987934
H      -0.624749    1.979246    0.771573
H      -0.984028   -0.355539    0.023285
H       1.709670   -2.311493   -1.407576
H       3.521393   -1.821185    0.443063
H       2.635149   -0.128277    2.073690
H       0.317446   -0.406451    2.215593
H       0.008089   -3.515872    0.703833
