16

C       0.602180    0.766222   -0.313329
O      -0.699859    0.974007    0.202646
C      -1.560131   -0.048985   -0.008147
C      -1.450046   -1.277026   -0.616766
C      -2.739980   -1.895378   -0.513122
C      -3.574176   -1.034595    0.153973
N      -4.920222   -1.097004    0.585257
N      -2.836110    0.098452    0.458287
H       1.178565    1.661033   -0.073920
H       1.075053   -0.110434    0.148045
H       0.578043    0.623759   -1.401507
H      -0.571129   -1.686117   -1.086827
H      -3.015750   -2.864986   -0.899819
H      -5.571536   -0.843296   -0.152621
H      -5.158986   -2.034766    0.885521
H      -3.172627    0.873450    1.003224
