20

N      -0.105672   -1.138422   -0.111870
C      -0.063751    0.016084   -0.140062
C       0.014812    1.474951   -0.169492
C       1.440640    1.999193    0.093671
C       1.504376    3.528294    0.061672
C       2.917422    4.071563    0.313698
C       2.964098    5.579323    0.269311
C       4.092758    6.319644   -0.306078
O       2.866725    6.178666   -1.026808
H      -0.342373    1.822885   -1.145893
H      -0.680748    1.874544    0.578033
H       1.784315    1.627111    1.065660
H       2.118961    1.578868   -0.657440
H       1.155565    3.895685   -0.911350
H       0.815778    3.939197    0.812893
H       3.279810    3.732002    1.293356
H       3.607456    3.672942   -0.439428
H       2.365246    6.086507    1.029352
H       4.318126    7.326446    0.042781
H       4.940390    5.770742   -0.714934
