23

C      -0.053222    1.554199   -0.119948
C       0.145777    0.037330   -0.064479
C       0.445126   -0.471725    1.352888
C       0.622918   -1.975017    1.392626
C       1.931329   -2.624112    1.088407
C       1.394574   -2.699987    2.508060
C       2.089560   -1.929600    3.580214
C       1.873242   -2.428781    4.998078
O       2.787687   -0.962650    3.347307
H       0.839528    2.081931    0.233083
H      -0.260302    1.893206   -1.139862
H      -0.892008    1.867699    0.511796
H      -0.750126   -0.465315   -0.453351
H       0.968608   -0.251947   -0.730317
H       1.345283    0.013677    1.740022
H      -0.378765   -0.183951    2.020798
H      -0.256692   -2.530310    1.072831
H       1.956638   -3.541475    0.511118
H       2.789495   -1.970859    0.967240
H       0.962395   -3.642416    2.828239
H       2.241233   -3.456845    5.096121
H       2.396095   -1.783500    5.704667
H       0.803338   -2.451885    5.234905
