22

C       0.361762    1.396651   -0.808417
C       0.428999    0.103562    0.012792
C      -0.929369   -0.518107    0.284024
C      -1.084840   -1.622291    1.271341
N      -1.725763   -0.328528    1.506919
C      -1.240305    0.465205    2.629206
C      -1.713024    1.921439    2.501373
C      -1.853909   -0.118426    3.897751
O      -1.299505   -0.159669    4.964496
H       1.365381    1.773208   -1.027538
H      -0.145779    1.226261   -1.764061
H      -0.183262    2.186984   -0.283925
H       1.022559   -0.635942   -0.540328
H       0.968372    0.275153    0.950122
H      -1.563460   -0.558754   -0.602224
H      -1.749680   -2.460788    1.081119
H      -0.207181   -1.867300    1.870029
H      -0.148611    0.439576    2.765130
H      -1.371664    2.509194    3.357841
H      -1.317222    2.374271    1.589196
H      -2.805251    1.965019    2.451451
H      -2.894709   -0.488312    3.757036
