19

C      -0.298104    1.403728    0.018733
C      -0.012337   -0.077089   -0.016473
O       1.076665   -0.580935   -0.116747
O      -1.161415   -0.787221    0.078261
C      -1.055673   -2.228855   -0.008042
C      -2.299386   -2.754228    0.702891
O      -3.506080   -2.325305    0.076205
C      -0.942634   -2.679209   -1.470481
O      -1.984488   -2.210250   -2.296521
H       0.640947    1.952890    0.073142
H      -0.839197    1.691471   -0.887919
H      -0.933509    1.652302    0.872589
H      -0.156626   -2.551322    0.527761
H      -2.305041   -3.847837    0.670006
H      -2.278584   -2.445960    1.757424
H      -3.488777   -1.360588    0.087247
H      -0.005817   -2.299150   -1.886498
H      -0.875521   -3.781512   -1.466420
H      -2.812728   -2.407091   -1.837942
