20

C      -0.271471    1.570097   -0.040451
C       0.042950    0.080777   -0.010505
C       1.179052   -0.482100   -0.936008
C       1.804384   -1.213575    0.293471
O       1.886800   -2.609144    0.283921
C       2.933934   -0.479615    1.077373
N       2.690864    0.971239    0.944471
C       1.916802    0.184040    1.942357
C       0.756956   -0.550862    1.228308
H       0.633911    2.163286    0.099582
H      -0.723452    1.850218   -0.998944
H      -0.985347    1.834831    0.748398
H      -0.878806   -0.483285   -0.189316
H       0.829296   -1.178044   -1.702976
H       1.817089    0.279901   -1.386103
H       2.546657   -2.863770   -0.371467
H       3.917946   -0.870071    1.312951
H       3.429814    1.451976    1.456774
H       1.963285    0.454670    2.990424
H       0.167784   -1.177084    1.899162
