18

C       0.026855    1.528429   -0.105860
C       0.017182    0.012476   -0.049050
O       0.654278   -0.483504   -1.221307
C       0.726056   -1.832906   -1.317972
C       0.296662   -2.824961   -0.487400
O       0.618212   -4.037187   -1.019472
C       1.259252   -3.803174   -2.204781
C       1.357062   -2.466183   -2.444483
N       1.867916   -1.769937   -3.546822
H       1.052130    1.906769   -0.147160
H      -0.508436    1.884230   -0.990499
H      -0.458954    1.941117    0.783085
H       0.551940   -0.355845    0.839133
H      -1.010722   -0.376389   -0.003220
H      -0.216089   -2.836879    0.457688
H       1.576873   -4.674596   -2.751552
H       2.655602   -2.230174   -3.983123
H       2.118117   -0.821020   -3.299215
