23

C       0.245411    1.351287    0.005371
O       0.019929   -0.063243   -0.000003
C      -1.276407   -0.444080    0.013098
O      -2.188375    0.346139    0.027758
C      -1.363702   -1.959362    0.005528
C      -2.773942   -2.590255    0.014647
C      -3.565958   -2.171853   -1.238523
C      -2.589766   -4.120143    0.004170
C      -3.543164   -2.186419    1.286648
H       1.327925    1.479342   -0.006268
H      -0.204142    1.818475   -0.874632
H      -0.183904    1.808515    0.900577
H      -0.801781   -2.303086   -0.872266
H      -0.786478   -2.312450    0.869606
H      -3.037342   -2.464594   -2.153485
H      -4.544587   -2.663578   -1.251994
H      -3.723346   -1.092109   -1.262870
H      -2.031148   -4.462505    0.882772
H      -3.561848   -4.624391    0.010319
H      -2.047584   -4.452396   -0.888496
H      -3.699479   -1.106992    1.326492
H      -4.521650   -2.677976    1.311864
H      -2.998382   -2.490097    2.188469
