18

O      -0.079767    1.594964   -0.081723
C       0.067010    0.186786    0.055783
C      -1.284965   -0.515369   -0.008561
C      -2.090635   -0.655608   -1.332390
N      -2.320293   -2.135027   -1.083738
C      -1.009414   -2.829872   -1.106694
C       0.123776   -2.585836   -2.041628
O       0.399988   -1.562143   -2.624270
C      -1.406752   -2.034202    0.104103
H      -0.240749    1.779886   -1.012227
H       0.760455   -0.212073   -0.690677
H       0.509549    0.023781    1.045739
H      -1.926936   -0.060213    0.751981
H      -3.056241   -0.148555   -1.320806
H      -1.565857   -0.444617   -2.262744
H      -1.162350   -3.897310   -0.956192
H       0.744014   -3.497949   -2.193080
H      -1.605105   -2.576416    1.024963
