17

C       0.108637    1.558564   -0.088472
C      -0.044582    0.053557    0.099846
O       0.513917   -0.641662   -1.050535
C       1.479693   -1.643989   -0.696529
C       1.579855   -1.484416    0.779958
C       0.723760   -0.538442    1.239525
N       0.800222   -0.397650    2.600930
C       1.717266   -1.273464    2.957878
N       2.229712   -1.969910    1.884856
H       1.165937    1.829654   -0.157026
H      -0.398014    1.882473   -1.001892
H      -0.332619    2.085987    0.763209
H      -1.115146   -0.196286    0.154608
H       1.118191   -2.636324   -1.009471
H       2.417645   -1.449292   -1.237366
H       2.059973   -1.455612    3.965697
H       2.938615   -2.682578    1.925333
