23

C      -0.088668    1.621608   -0.370238
C      -0.010328    0.092822   -0.407794
C      -1.211458   -0.565596    0.275062
O      -2.437084   -0.140085   -0.334034
C      -2.895778   -1.175751   -1.186721
O      -1.988867   -2.243692   -1.098062
C      -1.305427   -2.109353    0.161870
C       0.014791   -2.860222    0.043260
C      -2.165009   -2.683628    1.298052
H       0.761630    2.072320   -0.890621
H      -1.009057    1.970565   -0.844980
H      -0.083857    1.992454    0.661111
H       0.043308   -0.254678   -1.446371
H       0.908291   -0.243204    0.088471
H      -1.253303   -0.249162    1.324861
H      -3.907591   -1.469233   -0.861981
H      -2.931726   -0.841523   -2.232490
H       0.585234   -2.523297   -0.823851
H       0.622328   -2.719304    0.942397
H      -0.177500   -3.930891   -0.070712
H      -2.424946   -3.723772    1.082038
H      -1.620690   -2.653580    2.247344
H      -3.088961   -2.111899    1.422401
