21

C      -0.474695    1.328788    0.754810
C      -0.027292    0.181310   -0.131672
O       1.095395    0.109943   -0.582570
C      -1.060835   -0.893634   -0.381924
C      -0.802313   -1.975516   -1.453486
C      -1.381211   -3.038709   -0.482901
C      -1.175995   -2.035887    0.693791
C       0.094693   -2.305355    1.493392
O      -2.279968   -1.803637    1.547359
H       0.383323    1.923721    1.070767
H      -1.169587    1.967913    0.196188
H      -1.027083    0.950004    1.621600
H      -2.057041   -0.451328   -0.475911
H      -1.306975   -1.845987   -2.412082
H       0.268747   -2.091589   -1.630627
H      -2.448620   -3.206695   -0.645625
H      -0.869452   -4.002669   -0.413210
H       0.969358   -2.391112    0.843648
H       0.283212   -1.504662    2.215486
H      -0.006548   -3.248884    2.044463
H      -2.251282   -2.446709    2.264383
