21

C      -0.038993    1.483728    0.028824
C      -0.014559   -0.026281    0.000427
C      -1.342422   -0.749171   -0.191263
O      -1.189422   -2.058587    0.346788
C      -0.186496   -2.025036    1.360058
C       0.737943   -0.875156    1.006202
C       1.236115   -0.766521   -0.424017
C       1.297951   -1.925636   -1.397690
O       2.517749   -2.651665   -1.269936
H       0.943137    1.888822    0.289461
H      -0.315783    1.897193   -0.948171
H      -0.762842    1.856099    0.763231
H      -2.133565   -0.193795    0.339708
H      -1.652369   -0.861467   -1.236295
H      -0.630193   -1.855510    2.354536
H       0.289147   -3.013191    1.370844
H       1.315900   -0.421442    1.804190
H       2.103141   -0.116126   -0.524262
H       0.427186   -2.581932   -1.288837
H       1.299782   -1.542918   -2.424330
H       2.547973   -3.002922   -0.374325
