18

N      -0.084198    1.264951   -0.035580
C      -0.043706    0.005037   -0.076145
O      -1.133951   -0.714145    0.265546
C      -1.037251   -2.117679    0.099184
C      -2.360196   -2.826815    0.512453
C      -2.923237   -2.380315   -0.877726
C      -1.462988   -2.678558   -1.292262
O      -1.318511   -4.089273   -1.088477
C      -1.970833   -4.272851    0.197074
H       0.819977    1.649798   -0.301013
H       0.817952   -0.615090   -0.359200
H      -0.097266   -2.501605    0.511621
H      -2.856567   -2.614383    1.457515
H      -3.702128   -2.991543   -1.337926
H      -3.172796   -1.321326   -0.905260
H      -1.009918   -2.385482   -2.237956
H      -1.264345   -4.709111    0.912175
H      -2.832206   -4.941946    0.091516
