21

C      -0.065077    1.480414    0.077992
C       0.110370   -0.012651    0.006311
O      -0.742576   -0.793607    0.871007
C       0.679202   -0.834615    1.083565
C       1.348243   -2.062015    0.503033
C       0.751553   -2.164653   -0.919532
C       0.375388   -0.716002   -1.324638
C      -0.791765   -0.646404   -2.300446
O      -0.414057   -1.344976   -3.479696
H       0.794501    1.993868   -0.366278
H      -0.961366    1.800673   -0.464123
H      -0.168202    1.804995    1.116450
H       1.015841   -0.403349    2.024293
H       2.432020   -1.891481    0.475949
H       1.175168   -2.963748    1.098939
H       1.433365   -2.627095   -1.634596
H      -0.155114   -2.774500   -0.895110
H       1.238646   -0.224449   -1.794931
H      -1.678406   -1.098835   -1.829972
H      -1.035146    0.403789   -2.529068
H      -1.170249   -1.363324   -4.073208
