20

C      -0.424545    1.412545    0.040488
C       0.069501   -0.004286   -0.030174
C       1.180438   -0.435209   -1.013832
C       1.838471   -1.292754    0.109482
C       0.732408   -0.841132    1.120815
C       1.130921   -0.356850    2.494435
C      -0.505746   -1.696677    0.982674
N      -0.944939   -2.706784    1.584822
O      -1.040689   -0.974560   -0.065737
H       0.413649    2.106051    0.159711
H      -0.955655    1.678162   -0.880308
H      -1.111830    1.547380    0.880829
H       0.809684   -0.973088   -1.888366
H       1.806445    0.395639   -1.349066
H       1.898409   -2.368616   -0.064029
H       2.828132   -0.931883    0.399248
H       1.945551    0.372898    2.437960
H       0.288638    0.105688    3.018319
H       1.473103   -1.200234    3.103237
H      -1.839545   -3.011428    1.196411
