12

C      -0.578997   -0.599778   -1.013729
C      -0.163457    0.290238   -0.322633
C       0.344145    1.377777    0.510944
N       0.446875    2.649636   -0.218654
C       1.416693    2.818176   -0.980730
O       2.473852    1.984680   -1.268605
N       3.294034    2.667320   -2.169302
N       2.810240    3.774161   -2.418407
O       1.626309    3.955536   -1.720236
H      -0.947676   -1.388597   -1.621659
H      -0.339983    1.544823    1.348497
H       1.312616    1.085941    0.941268
