14

O       0.405431    0.927134    0.737788
C      -0.033218    0.089033   -0.315362
C      -1.395871   -0.500032   -0.096033
C      -2.113826   -0.683959    1.059756
O      -3.305924   -1.274079    0.703280
C      -3.230392   -1.412672   -0.624471
N      -2.134149   -0.975505   -1.165630
C      -1.864785   -0.411287    2.472545
O      -2.646018   -0.665742    3.361782
H      -0.135843    1.723880    0.730062
H      -0.032930    0.600342   -1.287872
H       0.705865   -0.717739   -0.385953
H      -4.077608   -1.863428   -1.118741
H      -0.878279    0.053564    2.653318
