21

C      -0.302968    1.520497    0.111799
C      -0.013657    0.042009    0.005950
C      -1.219589   -0.937068    0.013725
C      -0.576499   -1.762752    1.164349
C       0.656289   -0.806064    1.189614
C       1.790779   -1.230785    0.205647
C       1.133734   -0.408310   -0.939378
C       1.040287   -0.238239    2.452873
C       1.354029    0.259785    3.503901
H       0.613227    2.094835    0.286399
H      -0.761158    1.892639   -0.813330
H      -0.991710    1.734260    0.936237
H      -2.157902   -0.457280    0.304554
H      -1.389109   -1.471594   -0.925373
H      -1.150040   -1.736507    2.092276
H      -0.333275   -2.804452    0.937911
H       2.770827   -0.855328    0.504355
H       1.868018   -2.309803    0.046517
H       0.814817   -0.976476   -1.817922
H       1.756984    0.422353   -1.281091
H       1.633839    0.689786    4.433211
