20

C      -0.158099    1.569264    0.002690
C       0.044712    0.054688   -0.002373
C       0.875644   -0.492170   -1.199489
C       1.611435   -1.698494   -0.617618
C       2.594256   -1.475077    0.523295
C       2.308243   -0.148552    1.225536
C       0.785311   -0.522095    1.218742
C       1.183433   -1.965089    0.800685
H       0.798098    2.102427    0.043800
H      -0.680726    1.900495   -0.901101
H      -0.754436    1.887642    0.864834
H      -0.943241   -0.426054   -0.031467
H       0.233750   -0.779927   -2.038131
H       1.570667    0.266850   -1.579348
H       1.836512   -2.546015   -1.256019
H       3.524137   -2.030825    0.568962
H       2.709337   -0.142263    2.242412
H       2.611046    0.778913    0.726044
H       0.261529   -0.383935    2.165573
H       0.823278   -2.905595    1.195846
