19

C       0.020297    1.580423    0.068222
C       1.537476    1.797152   -0.021703
O       2.049674    0.825301    0.943836
C       1.566191   -0.162795   -0.001161
C       1.964465    0.807801   -1.140337
O       1.236217    0.793803   -2.341158
C       0.435080   -0.378583   -2.482563
C      -0.568987   -0.540883   -1.325369
C       0.026800    0.013822   -0.014658
H      -0.374317    1.950300    1.016475
H      -0.521848    2.047784   -0.756907
H       1.950899    2.798397    0.091246
H       1.990369   -1.157409    0.135135
H       3.042356    0.829004   -1.324166
H      -0.071239   -0.282024   -3.445903
H       1.088664   -1.262474   -2.541910
H      -1.505702   -0.020175   -1.549994
H      -0.815600   -1.603721   -1.219106
H      -0.447761   -0.439865    0.857100
