15

O       0.049497    1.283389   -0.067697
N       0.071794   -0.117495   -0.045956
C      -1.102027   -0.620716    0.008419
C      -1.256750   -2.137770    0.038235
N      -2.701065   -2.326587   -0.148155
C      -3.319982   -1.111646   -0.019464
C      -2.458791   -0.052554    0.032893
C      -2.860367    1.300108    0.069945
C      -3.264143    2.434688    0.113319
H       0.986526    1.497859   -0.120692
H      -0.682424   -2.627558   -0.752627
H      -0.929338   -2.547512    1.002462
H      -3.140387   -3.147309    0.238224
H      -4.400867   -1.058190   -0.010174
H      -3.593145    3.442976    0.146092
