17

O       0.007117    0.207157    0.649598
C       0.027952    1.340541    0.252976
C      -1.154151    2.312689    0.213647
O      -0.687211    3.482064   -0.427493
C       0.737336    3.566636   -0.289477
C       1.142967    4.310752    1.002921
C       0.621955    5.668476    1.069678
C       0.199589    6.792369    1.110391
C       1.227063    2.112844   -0.301921
H      -1.993458    1.895723   -0.352158
H      -1.501694    2.502386    1.241608
H       1.089004    4.140460   -1.149955
H       0.805342    3.736436    1.876408
H       2.239379    4.329624    1.057114
H      -0.179569    7.783255    1.151097
H       2.127656    1.917837    0.283901
H       1.409510    1.767530   -1.325685
