20

C      -0.098750    1.481662   -0.240231
C      -0.020377   -0.021907   -0.047204
O      -1.342053   -0.539633    0.018711
C      -1.401291   -1.941379    0.162815
C      -2.898382   -2.312132    0.065261
C      -3.688039   -1.800312    1.283313
O      -3.427891   -1.786173   -1.140994
C      -3.000940   -3.783448   -0.013251
N      -3.056944   -4.936725   -0.032674
H       0.907343    1.907846   -0.288989
H      -0.622228    1.725454   -1.169105
H      -0.633694    1.950077    0.590576
H       0.523501   -0.497121   -0.878783
H       0.519304   -0.269485    0.880148
H      -0.847315   -2.440577   -0.645445
H      -0.982213   -2.266337    1.126400
H      -3.533461   -0.722912    1.375463
H      -4.751303   -2.000732    1.139604
H      -3.355134   -2.286594    2.204797
H      -3.021832   -0.912757   -1.229648
