13

N      -0.033463    1.390305    0.148472
C      -0.005380    0.004573    0.037396
N      -1.142911   -0.631963    0.016898
N      -1.069926   -1.987271    0.005897
C       0.040853   -2.809800   -0.028984
O      -0.028256   -4.025762   -0.056496
C       1.275845   -2.016844   -0.024410
F       2.401271   -2.703275   -0.051258
C       1.264270   -0.669506    0.016073
H       0.678668    1.874270   -0.379736
H      -0.955256    1.772789   -0.015003
H      -1.965896   -2.454960    0.002547
H       2.192406   -0.109323    0.042690
