21

C       0.316531    0.674056    1.276380
C      -0.013681   -0.039396   -0.023904
C       0.611827    0.484205   -1.266973
N       1.062184   -0.796549   -0.694484
C      -1.368358   -0.710788   -0.041223
C      -1.605901   -1.718011    1.086537
O      -2.807196   -2.429438    0.908409
C      -2.527448    0.019241   -0.619794
N      -1.968432   -1.163972   -1.299678
H       1.273113    1.200086    1.198024
H      -0.453978    1.410550    1.528012
H       0.389482   -0.029588    2.111882
H       0.120833    0.410251   -2.234307
H       1.249612    1.359624   -1.170695
H       1.944163   -0.670419   -0.203252
H      -0.734329   -2.393622    1.127746
H      -1.674433   -1.204508    2.051980
H      -2.847578   -2.611880   -0.043232
H      -3.519374   -0.128886   -0.204636
H      -2.341391    0.998027   -1.054267
H      -1.404817   -0.918087   -2.106511
