19

C      -0.592646    1.340891    0.172806
C       0.123092    0.032651   -0.106213
O      -0.709551   -0.898344   -0.773629
C       1.477986    0.037113   -0.858257
C       1.991208   -1.065894    0.104005
C       0.860388   -0.671569    1.106951
O       1.281353    0.337266    2.014995
C       0.126147   -1.732318    1.782197
C      -0.496964   -2.598862    2.339067
H       0.059275    2.048143    0.688439
H      -0.928309    1.780290   -0.771782
H      -1.474166    1.171358    0.802004
H      -1.365947   -1.214429   -0.140338
H       1.410881   -0.212794   -1.917573
H       2.011217    0.980698   -0.730622
H       1.845964   -2.069273   -0.297431
H       3.004418   -0.967613    0.499943
H       1.840987   -0.081108    2.678448
H      -1.034525   -3.368451    2.836388
