20

C      -0.051102    1.536592    0.078148
C       0.027283    0.014774   -0.041608
C       0.732943   -0.447594   -1.281428
N       1.231341    0.328374   -2.171831
C       1.815890   -0.543649   -3.192521
C       1.565568   -1.977712   -2.731097
N       1.850879   -3.117792   -3.219749
N       0.883578   -1.815393   -1.529228
C       0.428655   -2.919221   -0.711242
H       0.948209    1.977285    0.093479
H      -0.582002    1.966710   -0.774025
H      -0.573660    1.818209    0.996506
H       0.539071   -0.414017    0.830738
H      -0.979558   -0.424452   -0.029744
H       1.355994   -0.357546   -4.170548
H       2.888946   -0.345879   -3.302570
H       2.349410   -3.017113   -4.101838
H       0.722373   -3.836731   -1.223623
H       0.890582   -2.901511    0.281846
H      -0.660163   -2.909684   -0.592017
