18

O       0.947054   -0.014094   -1.069793
C       0.013607   -0.013131   -0.020211
C      -1.213245   -0.805429   -0.406125
O      -1.311470   -1.351376   -1.480416
C       0.643106   -0.575738    1.262837
C       1.855868    0.227320    1.862671
C       1.057401    0.382039    3.160257
N      -0.186130    1.103935    2.799375
C      -0.098913   -0.364952    2.593782
H       0.541265   -0.539554   -1.777271
H      -0.321046    1.013250    0.204416
H      -2.021650   -0.864941    0.350775
H       0.913018   -1.624255    1.109953
H       2.746157   -0.394569    1.967294
H       2.115001    1.158911    1.355550
H       1.432807    0.406462    4.175714
H      -0.710635    1.251449    3.661238
H      -0.802271   -1.033164    3.075880
