12

N      -0.589275   -0.488936   -1.217798
C      -0.204239    0.198712   -0.373572
C       0.298632    1.074551    0.683140
C       1.549538    1.801794    0.286088
C       2.259749    1.768106   -0.866397
O       3.323021    2.615650   -0.726775
C       3.190099    3.118569    0.518933
N       2.164769    2.680057    1.171923
H      -0.483588    1.794877    0.951584
H       0.483310    0.476724    1.583873
H       2.165640    1.247863   -1.803262
H       3.938976    3.824146    0.842403
