20

C       0.637076    1.431888   -0.030832
O       0.830159    0.015408   -0.144726
C       0.138563   -0.581182   -1.137768
O      -0.609522    0.007680   -1.877339
C       0.464539   -2.065788   -1.222466
C      -0.787599   -2.878975   -1.573057
C       1.560038   -2.245746   -2.267640
C       2.986423   -2.065081   -1.906481
N       2.456143   -3.408574   -2.211339
H       0.947878    1.938140   -0.948182
H      -0.414345    1.663049    0.157128
H       1.254607    1.749312    0.809382
H       0.867172   -2.375383   -0.251607
H      -1.234576   -2.500747   -2.495550
H      -0.530009   -3.932446   -1.713278
H      -1.539777   -2.809665   -0.781842
H       1.245403   -1.989457   -3.277486
H       3.691192   -1.675757   -2.635316
H       3.215964   -1.814650   -0.874095
H       2.304120   -3.920317   -1.344480
