16

N       0.077242   -1.157551   -0.062066
C       0.068547   -0.002504    0.013176
C       0.041149    1.427824    0.105743
N       0.287461    2.246661   -1.107001
C       1.289607    2.258361   -0.039835
C       1.206428    3.438463    0.929061
C      -0.134711    3.299231    1.652007
N      -1.319619    3.426521    0.786025
C      -0.842469    2.086722    1.155829
H       0.596850    1.636798   -1.861909
H       2.249995    1.785892   -0.221214
H       2.023715    3.367989    1.653974
H       1.293316    4.394370    0.404881
H      -0.205857    3.616209    2.687751
H      -2.133409    3.656920    1.351600
H      -1.440612    1.445546    1.792355
