14

N      -0.040026    1.368310   -0.005824
C       0.055655    0.004426   -0.129558
O       1.094426   -0.589130   -0.305697
N      -1.185080   -0.670159   -0.070032
C      -2.468369   -0.138201   -0.110208
C      -3.356779   -1.171397   -0.007935
C      -2.600566   -2.381640    0.102421
C      -1.277398   -2.046839    0.055466
H       0.851885    1.828235    0.087839
H      -0.796504    1.763056    0.528727
H      -2.631173    0.913811   -0.273063
H      -4.432221   -1.079749   -0.022007
H      -2.994335   -3.381185    0.203833
H      -0.374463   -2.630416    0.103429
