16

C      -0.100687    1.438237    0.068636
N      -0.017911   -0.009004    0.144898
C       0.714780   -0.660261    1.078780
O       1.368176   -0.096970    1.946973
C       0.707656   -2.198662    1.009641
C       1.421728   -2.709766   -0.250657
O       1.330320   -2.694066    2.164384
H       0.518544    1.843480    0.869101
H       0.270820    1.806886   -0.893571
H      -1.131170    1.783954    0.203835
H      -0.541416   -0.558058   -0.517065
H      -0.341430   -2.536498    0.987746
H       2.446816   -2.328967   -0.283878
H       1.461826   -3.801538   -0.221048
H       0.905997   -2.408634   -1.168975
H       1.688169   -1.903728    2.605155
