16

O      -0.002968    1.437399    0.006927
C      -0.005851    0.017541    0.002178
C      -1.418405   -0.483677    0.012291
C      -2.479347    0.357280    0.023335
N      -3.764542   -0.121029    0.032472
C      -4.014617   -1.464520    0.030797
C      -3.001007   -2.363316    0.019994
C      -1.604515   -1.940051    0.009604
O      -0.649701   -2.718317   -0.000168
H       0.911393    1.731745    0.000850
H       0.506868   -0.391671   -0.882148
H       0.521536   -0.397674    0.874986
H      -2.362810    1.432796    0.025477
H      -4.532225    0.528574    0.040650
H      -5.060877   -1.746690    0.038604
H      -3.211219   -3.425677    0.018814
