21

C      -0.117922    1.414946    0.061196
C       1.212008    0.719392   -0.174061
C       2.075122    0.599545    1.036095
C       1.492715   -0.147236    1.978513
C       0.171781   -0.721451    1.535649
C      -0.004769   -2.278578    1.548599
C      -1.445548   -2.092581    2.088997
C      -1.064149   -0.644726    2.494043
C      -0.032327   -0.086658    0.156330
H      -0.226266    1.996335    0.971428
H      -0.631697    1.823403   -0.803386
H       1.650305    0.743080   -1.165719
H       3.031473    1.101991    1.130572
H       1.888437   -0.330556    2.972359
H       0.128455   -2.793071    0.592741
H       0.653357   -2.746129    2.287143
H      -2.191167   -2.110262    1.289199
H      -1.776570   -2.767551    2.881539
H      -0.754653   -0.583655    3.541978
H      -1.784947    0.152806    2.295900
H      -0.534342   -0.668153   -0.609299
