18

C       0.001792    1.442124    0.009598
N      -0.060858   -0.010423    0.054046
C       0.597267   -0.685107    1.073386
N       1.110805    0.010692    2.080568
C       1.731353   -0.658328    3.064531
C       1.877771   -2.033532    3.073961
C       1.316939   -2.766307    2.021698
C       0.653820   -2.103589    1.004762
N       0.078692   -2.742206   -0.111153
H       1.027991    1.827393   -0.062527
H      -0.574483    1.788277   -0.852132
H      -0.438043    1.855890    0.918932
H       0.053581   -0.462793   -0.843437
H       2.134234   -0.049915    3.870064
H       2.400431   -2.530803    3.882562
H       1.385317   -3.850784    2.003032
H       0.057509   -3.749977   -0.017878
H      -0.857143   -2.399662   -0.304144
