18

C       0.121981    1.396458   -0.156931
N       0.272715   -0.048189   -0.095831
C       0.582562   -0.609943    0.986223
O       0.825236    0.001137    2.182699
C       0.788202   -0.978603    3.213343
C      -0.503269   -1.720592    3.378208
C       0.645409   -2.349953    2.614170
C       0.665337   -2.132111    1.116652
O      -0.387818   -2.750881    0.416436
H       0.993746    1.835038   -0.656962
H      -0.752772    1.637699   -0.768777
H       0.015691    1.867850    0.826696
H       1.436949   -0.723068    4.040437
H      -0.728458   -2.127050    4.357630
H      -1.364680   -1.380323    2.813312
H       1.160600   -3.206011    3.029675
H       1.639613   -2.464796    0.721913
H      -0.563962   -2.168304   -0.337371
