17

O       0.370982    0.008029    0.690796
C       0.104231    1.116717    0.280052
C       1.158845    2.057654   -0.073358
C       2.017309    2.850744   -0.362165
C      -1.310179    1.634205    0.073510
C      -1.627754    1.855855   -1.448221
C      -3.020227    1.293887   -1.591125
C      -3.439242    0.672989   -0.491567
C      -2.412381    0.688295    0.612164
H       2.789343    3.537262   -0.612730
H      -1.366451    2.607860    0.571863
H      -1.558272    2.912197   -1.727857
H      -0.920079    1.321941   -2.097310
H      -3.576418    1.374509   -2.518596
H      -4.395378    0.172893   -0.383290
H      -2.002055   -0.311099    0.799772
H      -2.819589    1.041568    1.566201
