22

C      -0.040188    1.519994    0.019406
N       0.085068    0.069105    0.061008
C       1.109928   -0.573281   -0.747240
C       2.443181   -0.617384    0.054918
C       2.139623    0.021502    1.405271
C       0.709670   -0.593109    1.252087
C      -0.178601   -0.855564    2.436380
C       1.349049   -1.655752    0.249715
C       1.307752   -3.145838    0.178994
H       0.910481    2.069999    0.101486
H      -0.508640    1.805242   -0.928988
H      -0.702375    1.851186    0.826401
H       1.072242   -0.621425   -1.829802
H       3.402751   -0.752638   -0.429549
H       2.681909   -0.484289    2.209505
H       2.231245    1.105556    1.534788
H      -0.480017    0.085052    2.912868
H      -1.086663   -1.384321    2.132090
H       0.341675   -1.455350    3.190145
H       0.278152   -3.515980    0.113779
H       1.844704   -3.503959   -0.706370
H       1.775507   -3.609157    1.055640
