20

C      -0.038649    1.541791   -0.000123
C       0.005938    0.004825    0.049069
C       0.720863   -0.460549    1.330126
C      -1.428218   -0.552282    0.023859
C       0.771720   -0.500648   -1.216071
N       2.149315   -0.000087   -1.267662
C       0.718496   -1.976212   -1.330773
N       0.737069   -3.129270   -1.422731
H       0.966951    1.964189   -0.046751
H      -0.594591    1.892497   -0.877057
H      -0.542485    1.931869    0.889926
H       0.153667   -0.145905    2.211601
H       0.812255   -1.551270    1.365298
H       1.720962   -0.023813    1.415998
H      -1.953254   -0.258636   -0.892157
H      -1.442080   -1.644262    0.086125
H      -1.997675   -0.159892    0.872113
H       0.248830   -0.095875   -2.090940
H       2.722592   -0.492251   -0.589294
H       2.553712   -0.198123   -2.177609
