23

C      -0.577946    1.304416    0.072503
C      -0.047359   -0.093633    0.025511
C      -0.081643   -0.941029   -1.005302
C       0.594766   -2.254419   -0.704449
C       0.780830   -2.219408    0.842632
C       0.667946   -0.711886    1.209257
C      -0.285735   -3.039347    1.543112
C      -0.097686   -4.517554    1.765545
C      -0.061652   -3.564071    2.937734
H       0.222396    2.025474    0.285048
H      -1.049400    1.591556   -0.871581
H      -1.318854    1.422357    0.873846
H      -0.514074   -0.713530   -1.974703
H       0.009239   -3.126152   -1.020450
H       1.558920   -2.327811   -1.227782
H       1.759681   -2.619525    1.128095
H       1.655748   -0.247086    1.342624
H       0.131789   -0.562092    2.154881
H      -1.300445   -2.719875    1.313692
H      -0.954122   -5.174787    1.661562
H       0.840884   -4.961860    1.449184
H       0.900919   -3.373356    3.402071
H      -0.893552   -3.570701    3.633537
