18

C       0.001859    1.498748   -0.042907
C       0.077751    0.007571    0.011194
C       0.364036   -1.016025   -1.026921
C       0.505691   -2.067297    0.114884
C      -1.033910   -2.067505    0.209865
C      -1.399138   -1.816622    1.667854
O      -0.263082   -1.121270    2.214287
C       0.617982   -0.896896    1.132902
N      -1.051757   -0.789569   -0.603754
H       0.996015    1.947538    0.056926
H      -0.433935    1.826738   -0.990616
H      -0.626271    1.881643    0.768976
H       0.707615   -0.952290   -2.049928
H       1.132899   -2.953555    0.168632
H      -1.592873   -2.854666   -0.296417
H      -2.299839   -1.194402    1.745996
H      -1.558143   -2.742582    2.234707
H       1.607897   -0.639317    1.510590
