17

O      -0.003491    1.451988   -0.086785
C       0.007967    0.052594    0.009773
C       0.933871   -0.537947   -0.965236
N       1.699407   -0.952981   -1.726517
C       0.076474   -0.673615    1.405900
C      -0.974711    0.098164    2.216846
C      -2.116687    0.111145    1.148752
C      -1.383619   -0.649718    0.032503
N      -0.766997   -1.777171    0.823108
H       0.902835    1.779052   -0.113247
H       1.023089   -0.940984    1.874425
H      -1.243400   -0.449458    3.121273
H      -0.636365    1.100082    2.485404
H      -3.001380   -0.441639    1.467974
H      -2.405245    1.117959    0.845044
H      -1.917253   -0.890719   -0.885516
H      -0.186729   -2.335982    0.196324
