23

C      -1.159804    0.760626    0.355662
O       0.079978    0.165147    0.022262
C       0.723383   -0.540731    1.068971
C       0.124173   -1.939027    1.283775
O      -1.150081   -1.905128    1.920710
C       2.234435   -0.570764    0.728149
C       2.508522   -1.347236   -0.566908
C       2.774794    0.860718    0.626481
O       2.832661   -1.234647    1.850084
H      -1.052292    1.452896    1.205905
H      -1.479756    1.331219   -0.520403
H      -1.920420    0.015788    0.609454
H       0.622826    0.019315    2.015829
H      -0.047539   -2.406989    0.310158
H       0.835884   -2.554369    1.846627
H      -1.014174   -1.617141    2.829071
H       1.932762   -0.927241   -1.395205
H       3.572173   -1.291327   -0.826115
H       2.244699   -2.401993   -0.454503
H       2.625501    1.389803    1.572484
H       3.849411    0.846049    0.409388
H       2.270086    1.412178   -0.168892
H       3.782166   -1.269031    1.695186
