13

O      -0.017909    0.173234    0.690942
C      -0.045897    1.284971    0.286006
O      -0.913239    1.826854   -0.600946
N      -0.582951    3.193349   -0.811766
C       0.431407    3.393174   -0.050186
O       0.832292    2.300239    0.647262
C       1.159572    4.652937    0.100013
C       1.761866    4.992105    1.425258
N       2.620618    4.635200    0.297865
H       0.785483    5.438196   -0.547662
H       1.795213    6.035967    1.721130
H       1.632679    4.280374    2.234999
H       2.948357    3.676505    0.396363
