17

C       0.334213    1.499575   -0.194339
C       0.099294    0.033153    0.089273
O       0.895508   -0.847689   -0.756875
C       1.259824   -1.696529    0.357890
C       2.664433   -1.278180    0.840448
O       3.778162   -1.613594    0.571066
C       2.067070   -0.241360    1.820961
C       0.641112   -0.668942    1.358532
O      -0.262478   -1.077733    2.336310
H       1.389560    1.766284   -0.095074
H       0.022463    1.737563   -1.216076
H      -0.255340    2.120650    0.489226
H      -0.965140   -0.217229   -0.023380
H       0.973559   -2.743544    0.237463
H       2.249252   -0.555027    2.854879
H       2.380352    0.798171    1.703259
H      -0.381928   -0.360616    2.968249
