21

C       0.011944    1.543337    0.012133
C      -0.001886    0.011346   -0.000018
O      -1.355355   -0.458510    0.072695
C       0.681243   -0.533750   -1.272619
C       1.040243   -1.993046   -1.182022
C       1.018717   -2.682397   -0.044383
C       0.620232   -2.086298    1.282246
O       1.495057   -2.504963    2.333406
C       0.684355   -0.560037    1.245879
H       1.033018    1.935640    0.053895
H      -0.461039    1.942207   -0.893991
H      -0.541875    1.916493    0.878129
H      -1.821702   -0.139007   -0.706926
H       0.017979   -0.359755   -2.132820
H       1.586543    0.053000   -1.485769
H       1.337821   -2.480813   -2.107675
H       1.286013   -3.737869   -0.038167
H      -0.412060   -2.390526    1.513808
H       1.385461   -3.454095    2.448400
H       1.738910   -0.263779    1.249997
H       0.219715   -0.149869    2.147370
