13

N      -0.038647    1.324134   -0.570633
C      -0.042274    0.150549   -0.060869
C      -1.268601   -0.491724    0.365601
C      -1.401653   -1.743194    0.842562
O      -0.461240   -2.649259    1.163004
N       0.831102   -2.159764    1.881834
N       1.460849   -1.287562    1.356309
C       1.231105   -0.634058    0.087311
N       2.138297   -0.639168   -0.789326
H       0.903751    1.574813   -0.877740
H      -2.174125    0.077981    0.193827
H      -2.395782   -2.151404    1.019890
H       2.970123   -1.144934   -0.477013
