23

C      -0.031118    1.505867    0.025120
C       0.006925   -0.014199    0.029903
C       0.749614   -0.663423   -1.176723
C       1.058905   -2.116911   -0.685713
C       0.449857   -2.138416    0.743951
C       0.760484   -0.697457    1.197212
C      -1.067113   -2.123517    0.545952
C      -1.936542   -1.204612    1.368669
C      -1.361151   -0.713558    0.063407
H       0.979723    1.929314    0.018883
H      -0.554625    1.887969   -0.858994
H      -0.553005    1.890533    0.908094
H       0.136426   -0.645414   -2.083117
H       1.671129   -0.114499   -1.398550
H       0.617941   -2.883010   -1.330410
H       2.137208   -2.302225   -0.652604
H       0.831662   -2.939040    1.381497
H       1.832613   -0.478038    1.173299
H       0.388234   -0.436692    2.189472
H      -1.525345   -2.988416    0.077207
H      -2.997560   -1.431959    1.353754
H      -1.598142   -0.808918    2.319449
H      -2.037015   -0.526096   -0.765506
