18

C      -0.245336    1.348961   -0.329323
C       1.178727    0.945195    0.033276
C       0.098879   -0.082974   -0.110251
C      -0.261492   -1.080242    1.039772
C       0.173751   -2.234912    0.231031
N      -1.163959   -2.295308    0.781892
C      -2.055695   -2.337545   -0.411713
C      -1.308756   -1.504570   -1.447066
C      -0.050173   -1.316626   -0.998843
H      -0.834799    1.858286    0.426803
H      -0.435131    1.684819   -1.343660
H       1.938081    0.998134   -0.739169
H       1.534112    1.187136    1.030372
H      -0.080237   -0.890707    2.092894
H       0.937029   -2.985237    0.399465
H      -2.237840   -3.396515   -0.636372
H      -3.026551   -1.867675   -0.215441
H      -1.839657   -0.756506   -2.028916
