14

O       0.004309   -0.047820   -0.014274
C       0.004274    1.162351   -0.004989
C       1.245675    1.948056    0.028896
C       1.362897    3.287438    0.040705
C       2.826862    3.666141    0.076021
O       3.523373    2.432600    0.084462
C       2.616613    1.332176    0.055337
C       0.316195    4.243003    0.023699
N      -0.513923    5.051033    0.010588
H      -0.935006    1.750552   -0.021815
H       3.108186    4.267436   -0.801342
H       3.068466    4.256786    0.972208
H       2.758456    0.694573    0.938794
H       2.798404    0.708043   -0.830452
