13

N      -0.034764    1.339908    0.379003
C      -0.047081    0.087732    0.123091
C      -1.286777   -0.655160    0.021753
C      -1.424602   -1.982683   -0.151357
N      -0.465787   -2.979945   -0.084092
N       0.794948   -2.950266    0.442986
N       1.504521   -1.925333    0.417254
C       1.222778   -0.669086   -0.217614
O       2.082533   -0.183871   -0.906372
H       0.918394    1.702083    0.289656
H      -2.188313   -0.053942   -0.000900
H      -2.412392   -2.398749   -0.319522
H      -0.813889   -3.926151   -0.044227
