17

N      -0.121623    1.408317    0.115096
C      -0.071655   -0.056686    0.012767
C       0.792776   -0.554153    1.206883
O       0.307001   -0.064664    2.423195
C      -1.434687   -0.599206    0.120144
N      -2.501178   -1.041653    0.155775
C       0.547157   -0.569292   -1.298608
C       0.363564    0.113732   -2.579818
O       1.582662    0.250598   -1.832461
H       0.695901    1.783046   -0.361796
H      -0.950611    1.788152   -0.327556
H       0.779040   -1.647242    1.253062
H       1.827703   -0.231875    1.002680
H       0.125988    0.874021    2.266460
H       0.762073   -1.637994   -1.304910
H       0.447584   -0.452065   -3.504575
H      -0.248584    1.011352   -2.630956
