23

C      -0.036966    1.599688    0.242461
C      -0.013940    0.119676   -0.179335
C      -1.364863   -0.552040   -0.079697
C      -2.017186   -0.944216   -1.178026
C      -3.377330   -1.604976   -1.222677
O      -3.504812   -2.796170   -0.462065
C      -3.671658   -2.597388    0.925863
C      -2.405372   -2.153600    1.661840
C      -1.925277   -0.732169    1.321094
H       0.962554    2.039686    0.170100
H      -0.709939    2.174876   -0.401277
H      -0.378287    1.722026    1.275493
H       0.357139    0.043573   -1.206927
H       0.706202   -0.416848    0.454923
H      -1.548956   -0.771468   -2.145231
H      -4.159298   -0.887984   -0.911902
H      -3.602740   -1.895133   -2.253225
H      -4.479839   -1.866064    1.108361
H      -4.006758   -3.561672    1.323043
H      -2.615137   -2.205175    2.738289
H      -1.606201   -2.874227    1.454131
H      -1.161814   -0.440463    2.050308
H      -2.761617   -0.033196    1.474009
