17

O      -0.061799    1.486880   -0.184654
C       0.047030    0.086305   -0.125555
C      -1.323560   -0.589706    0.050924
C      -1.324065   -2.129271    0.079578
C      -2.214309   -2.514742    1.250766
N      -2.610906   -3.690930    1.499641
N      -2.462705   -1.333949    1.962077
C      -1.945614   -0.191780    1.387221
O      -1.978638    0.916751    1.880160
H      -0.581105    1.755406    0.587638
H       0.497266   -0.244775   -1.067697
H       0.716172   -0.244806    0.688181
H      -1.984433   -0.204550   -0.734446
H      -1.683682   -2.591824   -0.840103
H      -0.318382   -2.522812    0.267728
H      -3.189551   -3.734850    2.340181
H      -2.955823   -1.301799    2.843061
