21

C      -0.041279    1.367445   -0.293609
C      -0.018075   -0.138813   -0.004852
C       0.810125   -0.475664    1.242656
C      -1.433282   -0.671322    0.150986
O      -2.282993   -0.454914   -1.021242
C      -2.645521   -1.843208   -1.081338
C      -1.696118   -2.681510   -1.949637
O      -0.801656   -2.890663   -0.822543
C      -1.688044   -2.192305    0.071759
H       0.970432    1.743111   -0.477477
H      -0.654661    1.585358   -1.171797
H      -0.454919    1.925798    0.555029
H       0.426057   -0.656731   -0.862471
H       0.380856   -0.015959    2.141080
H       0.865547   -1.556505    1.406548
H       1.833462   -0.102117    1.138357
H      -1.916460   -0.225531    1.034698
H      -3.722759   -2.009020   -1.132319
H      -2.107956   -3.634845   -2.304362
H      -1.221691   -2.142109   -2.775764
H      -1.905003   -2.753467    0.982043
