14

N      -0.183156    1.539291   -0.080583
C       0.053378    0.099487    0.015777
C      -1.302065   -0.714473   -0.030045
O      -1.400884   -1.452812   -1.292904
C      -0.163048   -1.348122   -1.813588
C       0.719762   -0.567869   -1.156104
O       1.862133   -0.549772   -1.820777
N       1.617495   -1.423287   -2.992289
N       0.427780   -1.848779   -2.926001
H       0.689281    2.044996    0.042528
H      -0.524965    1.776125   -1.008860
H       0.563682   -0.083621    0.965534
H      -1.345200   -1.448704    0.778047
H      -2.157394   -0.040582    0.035802
