19

O      -0.210005    0.907366    0.863975
C      -0.416330   -0.397427    0.360365
C      -1.828342   -0.539310   -0.267089
N      -2.935371   -0.165785    0.609829
C      -3.232521   -1.116073    1.652385
C      -2.503974   -1.163686    2.984615
C      -3.923562   -0.644383    2.893344
C      -1.875656    0.299456   -1.479744
N      -1.842604    0.992440   -2.404045
H      -0.111613    1.506132    0.114301
H       0.348881   -0.685229   -0.374137
H      -0.346584   -1.075301    1.213532
H      -1.970627   -1.582961   -0.575018
H      -2.739753    0.750100    1.002853
H      -3.564039   -2.068801    1.246401
H      -2.331536   -2.126028    3.455488
H      -1.722728   -0.430525    3.154938
H      -4.074119    0.424623    3.007508
H      -4.730501   -1.246296    3.295176
