14

O      -0.042975    1.513580   -0.036350
C       0.072887    0.114188   -0.035941
C       0.081014   -0.598187    1.336564
C      -1.459838   -0.390046    1.508889
O      -1.740323   -1.798921    1.784838
C      -0.711757   -1.820705    0.757363
C      -0.211183   -3.070639    0.252687
N       0.212629   -4.059019   -0.171272
C      -1.287085   -0.593854   -0.032051
H       0.837890    1.896871    0.019167
H       0.803043   -0.246719   -0.770607
H       0.834037   -0.641627    2.122179
H      -2.009284    0.368077    2.057707
H      -2.069308   -0.625950   -0.787991
