15

N       0.002822    1.285397   -0.023897
C      -0.005782    0.025949   -0.017555
C      -1.233410   -0.854720   -0.158319
C      -0.668248   -2.244524   -0.388805
O      -0.349628   -2.519471   -1.773170
C       1.063778   -2.616593   -1.481662
C       0.833970   -2.136264   -0.040736
O       1.114548   -0.755160    0.156554
H       0.951603    1.641802    0.101953
H      -1.822066   -0.807372    0.763920
H      -1.866251   -0.521577   -0.982189
H      -1.245871   -3.056027    0.062757
H       1.427647   -3.648340   -1.564922
H       1.671153   -1.954039   -2.106449
H       1.267265   -2.709482    0.779093
