23

C       0.003849    1.348070    0.159390
O      -0.088169   -0.040129   -0.051584
C       0.632075   -0.521640   -1.177823
C       2.135668   -0.657096   -0.909051
C       2.873691   -1.074239   -2.190965
C       2.257079   -2.286565   -2.868141
C       1.965101   -3.550413   -2.103083
C       0.822566   -2.671817   -2.562389
C       0.011267   -1.874273   -1.541236
H       1.024551    1.677389    0.404424
H      -0.336511    1.917233   -0.720541
H      -0.646051    1.589202    1.004732
H       0.493745    0.178694   -2.020949
H       2.548022    0.290433   -0.547526
H       2.286016   -1.390533   -0.107310
H       2.846777   -0.232072   -2.895890
H       3.933400   -1.257285   -1.973811
H       2.578922   -2.427808   -3.896377
H       2.122724   -4.500876   -2.601507
H       2.179660   -3.571092   -1.038713
H       0.245191   -3.054603   -3.397888
H      -0.103155   -2.439923   -0.608601
H      -1.000932   -1.702086   -1.919149
