18

C       0.465450    0.637120    1.287130
C      -0.030894    0.167696   -0.065175
O       0.485718    0.499322   -1.109453
C      -1.272961   -0.724228   -0.052064
O      -2.372056    0.058472    0.384287
C      -1.519064   -1.751480   -1.199287
C      -0.370560   -2.608831   -0.615635
C      -1.253077   -2.152398    0.572431
N      -2.450199   -2.535903   -0.280292
H       1.222736    1.411900    1.161202
H      -0.368886    1.004630    1.890846
H       0.903904   -0.210771    1.827710
H      -2.531620    0.743962   -0.274870
H      -1.758036   -1.556035   -2.244700
H      -0.445813   -3.671692   -0.840308
H       0.645679   -2.223008   -0.692385
H      -1.181414   -2.422844    1.627088
H      -3.232080   -1.928521   -0.019856
