16

C      -0.124563    1.434611    0.178141
N      -0.059456    0.057606   -0.305495
C      -1.154726   -0.764020   -0.150763
C      -1.308015   -2.105245    0.038642
C      -2.730091   -2.345890    0.002672
C      -3.429477   -3.621936    0.156069
O      -4.633195   -3.759453    0.127464
C      -3.320747   -1.131483   -0.191548
O      -2.372084   -0.161989   -0.289073
H       0.809871    1.936537   -0.081231
H      -0.941728    1.957259   -0.322047
H      -0.279537    1.510848    1.264452
H       0.797912   -0.417327   -0.064002
H      -0.526038   -2.832617    0.187392
H      -2.758715   -4.497248    0.307789
H      -4.345348   -0.812315   -0.267032
