16

C       0.424152    1.415276   -0.090416
C      -0.140513    0.014768   -0.018333
C      -1.614556   -0.099293    0.384855
C      -1.794678    0.301152    1.835775
O      -2.043237    1.419989    2.209735
C      -1.617800   -0.785467    2.821323
N      -1.517442   -1.636300    3.597891
C       0.457342   -1.074284   -0.804968
O       0.702204   -0.965484    0.599915
H       0.277117    1.949605    0.852650
H       1.494769    1.374984   -0.302483
H      -0.070279    1.991036   -0.879706
H      -2.220550    0.578812   -0.222824
H      -1.955553   -1.127613    0.240541
H      -0.151200   -1.924105   -1.111027
H       1.313146   -0.862138   -1.444007
