16

C       0.431628    1.426281   -0.207410
C       0.067663   -0.025822    0.041528
O       0.843635   -0.977841   -0.738024
C       1.350271   -1.683125    0.426902
C       2.874343   -1.664129    0.459628
O       3.397255   -2.276439   -0.700165
C       0.592160   -0.694868    1.322054
O       0.487805   -0.501839    2.494610
H       1.497008    1.601783   -0.035164
H       0.195803    1.703683   -1.238864
H      -0.142744    2.070843    0.464995
H      -1.009084   -0.190271   -0.106624
H       0.978759   -2.715580    0.462829
H       3.229354   -0.627117    0.566130
H       3.233448   -2.233411    1.322656
H       2.995532   -1.822685   -1.451106
