17

C      -0.014702    1.583706    0.005786
C       1.521705    1.665478    0.018077
O       1.800419    0.970608    1.244225
C       1.153921   -0.275283    1.039567
O       2.068719   -1.156901    0.431356
C       2.119921   -0.715269   -0.901682
C       1.932775    0.772642   -1.183555
C       0.781267   -0.229641   -1.337964
C       0.020218    0.039477   -0.029314
H      -0.451816    2.017886    0.908570
H      -0.483584    2.007355   -0.885957
H       1.992473    2.646718    0.053079
H       0.848780   -0.694725    1.997218
H       2.784358   -1.309088   -1.516816
H       2.441863    1.208344   -2.034699
H       0.285082   -0.486494   -2.264501
H      -0.909804   -0.508148    0.111490
