18

C       0.000475    1.392300   -0.082070
O      -0.001789    0.015128    0.208702
C      -1.280661   -0.599835    0.090079
C      -1.713711   -0.855858   -1.349874
C      -1.968194   -2.146272   -1.569544
C      -1.714381   -2.976051   -0.353492
C      -0.271168   -2.987188    0.113360
C      -1.245092   -1.997673    0.701551
H       1.008373    1.763260    0.121355
H      -0.241719    1.604451   -1.134465
H      -0.713655    1.944308    0.550397
H      -2.017853    0.033967    0.613587
H      -1.763383   -0.068127   -2.092204
H      -2.279250   -2.574051   -2.516719
H      -2.356522   -3.816238   -0.115599
H       0.042554   -3.801253    0.758564
H       0.488322   -2.621306   -0.567722
H      -1.527659   -2.111821    1.740394
