21

C      -0.115473    1.579350    0.066595
C       0.074331    0.070218   -0.022655
C       1.175956   -0.508804   -0.985550
C       1.769458   -1.287683    0.205144
C       2.186748   -0.347012    1.307799
C       0.729527   -0.677314    1.162958
C       0.131037   -1.808681    1.989558
C       0.903010   -3.029217    1.488044
C       1.760315   -2.743972    0.496387
H       0.825323    2.091178    0.295740
H      -0.489708    1.985467   -0.879905
H      -0.834412    1.839165    0.851550
H      -0.886635   -0.402732   -0.251516
H       0.765069   -1.147953   -1.769506
H       1.845212    0.224190   -1.449424
H       2.697999   -0.804394    2.147682
H       2.545343    0.647192    1.053425
H       0.245977   -1.672041    3.072726
H      -0.947505   -1.917911    1.809447
H       0.778010   -4.012450    1.932379
H       2.387276   -3.474101   -0.005035
