11

N      -0.121509    1.301642    0.011369
C      -0.003370    0.053360    0.002776
O      -1.164098   -0.691443    0.008822
C      -1.072404   -2.030297    0.001469
N       0.028264   -2.731464   -0.010088
O      -0.391681   -4.040264   -0.013537
N      -1.752814   -4.130494   -0.003918
C      -2.194695   -2.906588    0.005326
H       0.796972    1.741646    0.005656
H       0.900775   -0.556593   -0.008983
H      -3.247016   -2.673370    0.014211
