24

C      -0.044336    1.562780    0.067642
C       0.143080    0.078244    0.006756
C       0.664527   -0.738724   -1.180810
C       1.296481   -1.767858   -0.163601
C       0.785921   -3.203745   -0.250075
C       2.823953   -1.713108   -0.190442
C       0.702136   -0.903874    0.983482
C       1.246513   -0.742129    2.370610
N      -0.765298   -0.853893    0.730882
H       0.832511    2.087569   -0.327049
H      -0.912825    1.876562   -0.524332
H      -0.204429    1.903459    1.096892
H      -0.111730   -1.129377   -1.844428
H       1.423606   -0.218681   -1.771812
H       1.085584   -3.668477   -1.196710
H       1.195269   -3.818268    0.560938
H      -0.303877   -3.225957   -0.182097
H       3.192629   -0.684695   -0.104276
H       3.260204   -2.296357    0.628701
H       3.206318   -2.125928   -1.130638
H       2.327814   -0.571855    2.362304
H       0.780103    0.108905    2.879758
H       1.055154   -1.634737    2.978757
H      -1.173800   -0.327199    1.504530
