16

C      -0.083444    1.472195    0.096323
N       0.156993    0.042982   -0.039298
C       0.667269   -0.726706    0.964858
C       0.630862   -2.084890    1.019056
C       1.265095   -2.768493    2.107988
N       1.283926   -4.051637    2.240361
C       1.887247   -1.831258    3.060060
N       1.904160   -0.551829    3.006745
O       1.261188    0.041806    1.913253
H       0.836249    1.982156    0.387107
H      -0.398441    1.856886   -0.875454
H      -0.857983    1.708843    0.837972
H      -0.442160   -0.456195   -0.676613
H       0.134664   -2.651795    0.241740
H       1.788680   -4.313285    3.089451
H       2.403771   -2.229036    3.932356
