19

C      -0.115204    1.511744   -0.051517
N       0.094875    0.077283    0.075201
C       1.377023   -0.553621   -0.143403
C       2.575067    0.274372    0.376344
C       1.900193    0.287509    1.763255
C       2.586529    0.046226    3.073771
C       1.884451    1.360656    2.814608
C       0.732052   -0.529095    1.225299
H       0.698750    2.138200    0.336195
H      -0.262090    1.750955   -1.109594
H      -1.031278    1.778454    0.484999
H       1.439995   -1.360996   -0.865144
H       3.504739   -0.300705    0.370299
H       2.752210    1.237650   -0.113007
H       2.127173   -0.649710    3.769502
H       3.671786    0.039656    3.090863
H       2.499423    2.240417    2.651832
H       0.955408    1.558650    3.339704
H       0.201381   -1.306679    1.766705
