13

C      -0.034547    1.525601    0.026180
C      -0.010752    0.031005   -0.007853
C      -0.025559   -0.808958   -1.099860
N       0.009585   -2.080196   -0.619697
N       0.046119   -2.149374    0.710733
C       0.034379   -0.866617    1.095955
C       0.064991   -0.511305    2.472705
N       0.087200   -0.164145    3.576661
H       0.863217    1.928675    0.506592
H      -0.090896    1.941087   -0.982979
H      -0.894288    1.898153    0.592725
H      -0.057813   -0.600282   -2.157543
H       0.009997   -2.937851   -1.147158
