15

C      -0.018368    1.570418   -0.187087
C      -0.026092    0.060853   -0.073356
C      -1.321436   -0.552285    0.459731
C      -1.686557   -0.034464    1.779248
N      -1.966695    0.395618    2.814508
C       0.781263   -0.746620   -1.023382
N       1.178881   -0.636722    0.392982
H       0.927498    1.922973   -0.609283
H      -0.827232    1.922400   -0.837087
H      -0.153196    2.037285    0.794181
H      -2.148114   -0.351744   -0.232440
H      -1.204183   -1.637390    0.531031
H       0.450105   -1.735692   -1.329331
H       1.356980   -0.212983   -1.775072
H       1.949009    0.019379    0.495309
