19

O      -0.045402    1.369050    0.057410
C      -0.014851   -0.040177    0.027506
C      -1.450083   -0.589212   -0.128926
C      -1.263544   -0.447958   -1.666888
C       0.263441   -0.626394   -1.405956
C       0.611303   -2.088679   -1.226354
O       1.667849   -2.566790   -1.565832
C      -0.493754   -2.915751   -0.559219
C      -1.484478   -2.068776    0.281685
H       0.854975    1.691820   -0.054634
H       0.591169   -0.441209    0.852708
H      -2.237042   -0.008512    0.356640
H      -1.762368   -1.168187   -2.320422
H      -1.478631    0.565236   -2.005115
H       0.999168   -0.122654   -2.035058
H      -1.026832   -3.410044   -1.381471
H      -0.025678   -3.717077    0.016880
H      -1.237625   -2.148879    1.346513
H      -2.499393   -2.461636    0.165977
