16

O       0.027918    0.070411   -0.803902
C      -0.062100    1.025961   -0.057840
N      -1.283906    1.604706    0.197266
C      -1.685559    2.495821    1.210468
C      -1.136504    3.690103    1.414848
C      -0.018499    4.231863    0.572425
N       1.304449    3.866197    1.083386
C       1.681228    2.660661    1.057785
N       1.097360    1.461478    0.618214
H      -2.009469    1.067127   -0.254906
H      -2.513130    2.139018    1.818630
H      -1.483097    4.281010    2.255951
H      -0.141791    3.874910   -0.460649
H      -0.066802    5.323827    0.548858
H       2.683491    2.443607    1.432302
H       1.792254    0.741845    0.470039
