21

C      -0.012095    1.628569    0.029633
C       0.107062    0.113341    0.026549
C       1.205857   -0.532327   -0.892735
C       1.529210   -1.530641    0.265716
C       0.747456   -0.621819    1.218401
C       1.309856    0.021519    2.453542
C       0.156117   -0.953030    2.552401
C       0.725639   -1.126042   -2.183682
O       1.140156   -0.850252   -3.280830
H       0.950727    2.100345    0.250143
H      -0.352424    1.995293   -0.944502
H      -0.734124    1.967943    0.781019
H      -0.868793   -0.336077   -0.202672
H       2.026343    0.160139   -1.092944
H       1.044466   -2.502210    0.114411
H       2.588946   -1.697087    0.472835
H       2.286856   -0.303547    2.797494
H       1.103943    1.072122    2.631632
H      -0.825360   -0.554596    2.791688
H       0.348643   -1.937371    2.967978
H      -0.092298   -1.877283   -2.053638
