14

N       0.148512    1.392139    0.009285
C       0.002653   -0.016892    0.055068
C      -0.485640   -0.709233    1.281515
O      -1.242257    0.082053    2.178878
C      -2.364055    0.451244    1.494316
N      -2.540414    0.002540    0.318699
C      -1.368979   -0.776593    0.014677
C      -1.505253   -1.927995   -0.824794
N      -1.563798   -2.860791   -1.506662
H      -0.240921    1.800251   -0.832421
H      -0.256680    1.849445    0.816101
H       0.766808   -0.578169   -0.476852
H       0.029772   -1.530783    1.761466
H      -3.032654    1.107076    2.036966
