23

C      -0.022588    1.451817    0.056290
C      -0.008547   -0.056593   -0.026035
C       1.045325   -0.720381   -0.922036
C       0.388370   -2.052666   -1.369146
C      -0.723636   -2.267745   -0.335776
C      -0.142396   -2.306035    1.114785
C      -0.443151   -0.814074    1.229260
C      -1.295767   -0.845345   -0.036315
C      -2.681676   -0.356283   -0.332380
H       0.927118    1.831453    0.451415
H      -0.172138    1.904049   -0.931462
H      -0.817479    1.817364    0.714258
H       1.284333   -0.079334   -1.777417
H       1.985530   -0.886771   -0.383462
H      -0.044690   -1.948310   -2.370989
H       1.096575   -2.887303   -1.403246
H      -1.433636   -3.057758   -0.585551
H      -0.772585   -2.892833    1.788828
H       0.896722   -2.639599    1.227089
H      -0.624289   -0.270358    2.151602
H      -2.828486    0.670701    0.017286
H      -2.886769   -0.367492   -1.410387
H      -3.442028   -0.980335    0.151963
