19

O       0.304143    0.238506    1.029864
C      -0.113394    0.275706   -0.341552
C      -1.489689   -0.368683   -0.441079
C      -1.492802   -1.844652   -0.030002
O      -1.241674   -2.029064    1.351464
C      -2.864174   -2.496483   -0.313862
O      -3.205493   -2.389595   -1.667944
C      -2.851904   -3.952951    0.109069
O      -3.109377   -4.830146   -0.683550
H       1.230376    0.491324    1.081362
H      -0.153970    1.314824   -0.697277
H       0.602452   -0.268907   -0.975331
H      -2.194318    0.179891    0.196406
H      -1.842235   -0.292676   -1.474083
H      -0.743701   -2.378285   -0.642922
H      -0.567191   -1.379871    1.598623
H      -3.603663   -1.981763    0.325117
H      -3.333751   -3.304014   -1.970623
H      -2.592808   -4.161849    1.160699
