16

C       0.007070    1.443898    0.150432
C      -0.062947   -0.029373   -0.030778
C      -1.090082   -0.893631   -0.253853
C      -0.497452   -2.193156   -0.332363
O      -1.208185   -3.334085   -0.577840
C      -0.833645   -4.466674    0.074311
N      -1.303560   -5.574948   -0.293105
C       0.843579   -2.035352   -0.158045
O       1.114831   -0.711620    0.034757
H       0.637921    1.910955   -0.614034
H      -0.993765    1.874629    0.079722
H       0.427061    1.706987    1.127646
H      -2.137045   -0.656649   -0.351452
H      -0.141645   -4.267456    0.901578
H      -0.962177   -6.315894    0.315770
H       1.685548   -2.705079   -0.168260
