22

C      -0.231073    1.418935   -0.092831
C       0.139521   -0.067728   -0.092149
C       0.773787   -0.528287    1.213436
C      -0.103545   -0.597496    2.499037
C       0.637005   -1.906275    2.883077
C      -0.185672   -3.035519    3.513921
C       0.593412   -4.258496    3.704391
N       1.228586   -5.213690    3.845467
C       1.092289   -2.038217    1.405362
H       0.653861    2.046847    0.059120
H      -0.690145    1.714669   -1.041032
H      -0.942292    1.651584    0.707258
H      -0.757251   -0.671772   -0.286787
H       0.831315   -0.275190   -0.919307
H       1.672158    0.067446    1.415766
H      -0.064457    0.235096    3.205311
H      -1.153131   -0.793035    2.247849
H       1.494588   -1.685993    3.525885
H      -0.582773   -2.721364    4.486894
H      -1.050098   -3.269545    2.880786
H       0.399772   -2.663608    0.829967
H       2.110595   -2.382756    1.214079
