13

C       0.078066    1.434558   -0.060725
N       0.007631   -0.005968    0.069907
N      -0.137567   -0.810551   -1.028682
N      -0.175648   -2.045556   -0.671479
N      -0.053700   -2.042976    0.675041
N      -0.016100   -2.959478    1.668395
C       0.125357   -2.146825    2.720585
N       0.181187   -0.796163    2.486784
C       0.062600   -0.789359    1.170980
H       1.031102    1.802922    0.326990
H      -0.005316    1.667688   -1.121813
H      -0.741715    1.904156    0.488563
H       0.192491   -2.555083    3.718506
