21

C      -0.010177    1.501669    0.259141
C      -0.066313    0.001137   -0.082104
C      -1.454458   -0.543597   -0.102388
C      -2.220944   -1.045108   -1.078009
C      -3.507858   -1.392921   -0.318807
O      -3.682199   -0.208058    0.532634
C      -2.414119   -0.668834    1.102956
C      -2.938782   -2.139016    0.939804
C      -3.950711   -2.615879    1.968938
H       1.025140    1.855425    0.280552
H      -0.559668    2.089137   -0.482132
H      -0.454754    1.704477    1.238610
H       0.406294   -0.173106   -1.055439
H       0.533182   -0.551232    0.655652
H      -2.013303   -1.196876   -2.127465
H      -4.405031   -1.702032   -0.854985
H      -2.157081   -0.220538    2.063536
H      -2.175441   -2.894730    0.733731
H      -4.700602   -1.844968    2.159995
H      -4.461793   -3.520591    1.621257
H      -3.456378   -2.863700    2.914922
