18

O       0.052134   -0.021598    0.535820
C       0.173254    1.182604    0.576489
C       1.298076    1.928429   -0.013213
C       1.302063    3.264429    0.096802
C       2.360874    4.168274   -0.456006
C       3.603469    3.431913   -0.913184
N       4.263783    2.605440    0.111548
C       3.605610    1.949966   -1.032473
C       2.368005    1.137556   -0.717856
H      -0.587691    1.821400    1.080354
H       0.473954    3.744482    0.616334
H       1.938372    4.731418   -1.301993
H       2.628053    4.924268    0.295105
H       4.241067    3.990204   -1.595223
H       5.271220    2.617201   -0.020592
H       4.251094    1.517967   -1.794361
H       2.626528    0.261764   -0.111316
H       1.954619    0.731938   -1.651153
