14

O      -0.162871    1.375694    0.093552
N       0.006537   -0.026982    0.079085
C      -1.099058   -0.620383   -0.017568
C      -2.611433   -0.450954   -0.035527
N      -2.607551   -1.594033   -1.048218
C      -1.606985   -2.046576    0.011858
C      -2.608911   -1.532713    1.115668
O      -2.210466   -1.251645    2.413754
H       0.749124    1.685368    0.115547
H      -3.212830    0.446256   -0.158251
H      -3.472350   -2.134394   -0.924139
H      -1.055879   -2.982197   -0.055956
H      -3.536632   -2.110198    1.167506
H      -1.378648   -0.760737    2.383808
