23

C       0.002856    1.522585    0.053869
C       0.006303    0.026751    0.028643
C      -0.321063   -0.768924   -0.992046
C      -0.153981   -2.235028   -0.688941
C      -1.243231   -3.174740   -1.298058
C      -0.289867   -3.490981   -2.478934
C       0.885897   -2.950042   -1.626143
C       0.063340   -2.235866    0.842345
C       0.453072   -0.788125    1.225908
H       1.004514    1.918118    0.268181
H      -0.330532    1.944022   -0.898552
H      -0.654895    1.905159    0.845142
H      -0.639831   -0.415029   -1.968687
H      -1.405376   -4.051115   -0.661992
H      -2.214717   -2.726596   -1.525751
H      -0.233003   -4.528061   -2.817801
H      -0.489999   -2.857584   -3.347861
H       1.627852   -2.317507   -2.120866
H       1.408412   -3.752594   -1.095549
H      -0.880973   -2.501793    1.331169
H       0.804240   -2.976967    1.156830
H       1.536088   -0.676275    1.380734
H      -0.019316   -0.456594    2.159007
