18

O      -0.369998    0.059918   -0.023441
C      -0.086647    1.229203   -0.041086
C       1.314468    1.783935   -0.146683
C       1.428521    2.845824   -1.247342
C       2.712393    3.613117   -1.190047
N       3.577507    3.575125   -0.262116
C       4.647156    4.508155   -0.646142
C       4.191430    5.086645   -2.011828
O       2.926862    4.429931   -2.258413
H      -0.881766    2.010473    0.034208
H       1.564868    2.252666    0.814230
H       2.016832    0.962250   -0.302108
H       1.341244    2.394719   -2.242405
H       0.602347    3.566871   -1.177190
H       4.761246    5.281827    0.120326
H       5.601300    3.975209   -0.712750
H       4.019549    6.166388   -1.996033
H       4.867453    4.848252   -2.837504
