17

C      -0.025442    1.645923   -0.046256
O       1.416205    1.891266   -0.145775
C       2.214322    0.721127    0.175376
C       1.190105   -0.125844    0.884558
O       0.830123   -1.561160    0.863593
C      -0.533812   -0.993889    1.038520
C      -0.421418   -0.331246    2.416205
C       0.766396    0.264339    2.313468
C      -0.071823    0.136431    0.051279
H      -0.417837    2.156446    0.839459
H      -0.489502    2.060885   -0.944791
H       2.597109    0.241488   -0.733923
H       3.053781    1.058789    0.790262
H      -1.332434   -1.698964    0.814821
H      -1.136299   -0.374510    3.224113
H       1.328701    0.871615    3.007447
H       0.050474   -0.311425   -0.938822
