18

C      -1.545661   -0.714395   -0.428417
O      -0.213465   -0.373270   -0.096632
C       0.740340   -0.737553   -1.049763
C       0.683028    0.032923   -2.368084
C       0.819520    1.476030   -2.200889
C       0.931246    2.664131   -2.061256
C       2.068495   -1.103708   -0.470373
C       1.182386   -2.181710   -1.068924
H      -1.929803   -0.123060   -1.271095
H      -1.642839   -1.781648   -0.673966
H      -2.154522   -0.494719    0.451590
H       1.478611   -0.341294   -3.023140
H      -0.258331   -0.188802   -2.887510
H       1.031021    3.713376   -1.934034
H       2.964364   -0.807551   -1.004743
H       2.146756   -1.068638    0.609651
H       0.687757   -2.853777   -0.376892
H       1.473420   -2.633733   -2.011322
