24

C      -0.089455    1.397383    0.014651
O      -0.061618   -0.007507    0.000106
C       0.644551   -0.533135   -1.106423
C       0.607708   -2.064419   -1.042525
C      -0.853582   -2.541632   -1.039667
C       1.445306   -2.705769   -2.178842
C       2.921116   -2.272504   -2.149986
C       1.368952   -4.240983   -2.148812
H       0.924046    1.827582    0.065320
H      -0.587929    1.807678   -0.878550
H      -0.647332    1.706606    0.902266
H       0.186996   -0.184158   -2.050756
H       1.678427   -0.157523   -1.089043
H       1.065428   -2.351145   -0.084291
H      -1.314444   -2.391024   -2.024139
H      -0.937645   -3.601508   -0.788837
H      -1.430239   -1.973000   -0.307755
H       1.013404   -2.371128   -3.134539
H       3.490495   -2.802498   -2.920589
H       3.053105   -1.202490   -2.329179
H       3.378943   -2.508801   -1.181722
H       0.351562   -4.610326   -2.296722
H       1.993643   -4.670987   -2.938497
H       1.732583   -4.632370   -1.190729
