21

C       0.226351    1.493099   -0.073590
N       0.020146    0.074623    0.112289
C      -1.308104   -0.403044    0.548712
C      -0.584924   -1.534294    1.334641
O      -0.414006   -2.711494    0.567026
C       0.656254   -0.595374    1.265343
C      -1.121117   -1.926149    2.685436
C      -2.072234   -3.056405    2.823159
N      -0.688104   -3.180610    3.317382
H       1.277755    1.688853   -0.309180
H      -0.378303    1.850127   -0.913990
H      -0.041819    2.088876    0.819743
H      -1.826234    0.300877    1.221816
H      -1.989616   -0.709435   -0.252072
H      -0.050111   -2.442923   -0.284052
H       1.627777   -1.060789    1.066417
H       0.735929    0.049428    2.156481
H      -1.204012   -1.089529    3.375810
H      -2.835188   -3.027125    3.595914
H      -2.341900   -3.594707    1.920450
H      -0.154214   -3.707159    2.628446
