15

C      -0.080804   -1.192488    0.065564
C      -0.043334    0.008388    0.052863
C      -0.046914    1.453042    0.025868
C       0.592136    2.196294    1.133626
O       1.243301    2.074890   -0.129247
C      -1.155508    2.079139   -0.780467
C      -1.010524    3.457804   -1.301003
N      -0.960810    2.305386   -2.220717
H      -0.103585   -2.254463    0.074389
H       0.219764    3.190099    1.375566
H       1.052975    1.642869    1.949116
H      -2.143596    1.704940   -0.523738
H      -1.889279    4.088062   -1.400646
H      -0.082214    3.978797   -1.088981
H       0.013377    2.119243   -2.453066
