18

C       0.531857    0.390441   -0.873830
C       0.047311   -0.236465    0.431457
O      -0.040631    0.705065    1.491671
C      -1.307739   -0.933468    0.287835
O      -2.282999    0.018666   -0.084262
C      -3.300810   -0.727803   -0.732645
C      -2.507634   -1.821191   -1.468740
O      -1.292167   -1.920607   -0.728498
H       1.491942    0.885569   -0.709724
H       0.652299   -0.374844   -1.645072
H      -0.188242    1.131118   -1.234563
H       0.766637   -0.991443    0.767601
H      -0.754212    1.312637    1.263006
H      -1.589974   -1.396228    1.250375
H      -3.992421   -1.163584    0.003545
H      -3.856851   -0.060953   -1.394631
H      -3.026362   -2.786123   -1.473685
H      -2.279920   -1.537146   -2.503155
