16

O       0.032556    0.005907    0.042497
C      -0.000663    1.205813   -0.038592
C      -1.266910    2.068610   -0.159868
C      -0.819520    3.377513   -0.838926
C       0.696241    3.472674   -0.589155
C       1.159017    3.309105    0.833871
C       1.195817    2.110737   -0.091885
C       1.486161    4.260913   -1.491802
N       2.107928    4.902877   -2.226394
H      -2.031499    1.526308   -0.718087
H      -1.670367    2.239444    0.844917
H      -0.994607    3.326195   -1.916964
H      -1.341717    4.261187   -0.462805
H       2.120357    3.734917    1.094304
H       0.415858    3.350404    1.623051
H       2.152490    1.697385   -0.382673
