13

N      -0.102779    1.220005    0.429763
C      -0.058346    0.012884    0.053065
O       1.124219   -0.548317   -0.431994
C       1.141034   -1.836753   -0.825572
C       0.045857   -2.617153   -0.769134
N      -1.156934   -2.134127   -0.302520
C      -1.213797   -0.901633    0.084896
C      -2.525285   -0.362370    0.597618
O      -3.524785   -1.031354    0.660670
H       0.801480    1.680980    0.327868
H       2.116924   -2.146159   -1.179190
H       0.077582   -3.650408   -1.089461
H      -2.492112    0.695973    0.909825
