13

O       0.334196    1.279635   -0.054114
C       0.022232   -0.090912    0.141918
C      -1.483337   -0.342266    0.058399
C      -2.092197    0.155310   -1.254249
O      -3.278268    0.223283   -1.443795
C      -1.857928   -1.812111    0.236911
O      -1.057889   -2.679648    0.468287
H       0.048961    1.769853    0.723602
H       0.530056   -0.635090   -0.660485
H       0.418937   -0.480159    1.087212
H      -2.021223    0.195462    0.854409
H      -1.354340    0.421507   -2.039191
H      -2.942876   -2.018113    0.128744
