23

C      -0.121938    1.503401    0.053836
C      -0.001402   -0.024776   -0.022265
C       1.243046   -0.504275    0.727859
O      -1.109262   -0.628695    0.665353
C       0.003717   -0.475476   -1.500862
C       0.094431   -1.975720   -1.686538
C       0.327385   -2.560596   -3.067222
C       1.402816   -2.638332   -2.012926
O       2.526209   -1.808003   -2.115806
H       0.747570    1.993864   -0.395328
H      -1.013389    1.853587   -0.481227
H      -0.201277    1.823320    1.096730
H       1.245622   -0.106152    1.746651
H       1.254391   -1.594582    0.789366
H       2.153185   -0.184445    0.214760
H      -1.918507   -0.282433    0.273387
H      -0.922630   -0.108684   -1.967147
H       0.832991    0.009240   -2.025223
H      -0.564049   -2.536636   -1.030652
H      -0.196356   -3.465262   -3.357577
H       0.495998   -1.853580   -3.874075
H       1.601916   -3.609478   -1.559846
H       3.067146   -2.128564   -2.844567
