18

C      -0.157845    1.568979   -0.137395
C      -0.028151    0.057807   -0.004153
O      -1.244475   -0.593082   -0.308328
C       1.248448   -0.554574   -0.645142
O       1.799152   -0.865087    0.651528
C       0.558483   -0.507842    1.315114
C       0.841680    0.362058    2.525214
O       1.666656   -0.336992    3.439928
H       0.775970    2.080586    0.109513
H      -0.408428    1.831848   -1.173220
H      -0.950766    1.951577    0.512093
H      -1.619529   -0.187086   -1.097211
H       1.037364   -1.457372   -1.231328
H       1.898912    0.118568   -1.216261
H       0.011839   -1.408014    1.624280
H       1.309914    1.307804    2.213570
H      -0.089902    0.599985    3.050277
H       2.429790   -0.640681    2.933668
