22

C      -0.222081    1.435838   -1.318979
C      -0.049029    0.036634   -0.762101
C       1.303918   -0.581190   -0.475791
C       2.606759    0.153261   -0.719567
C       0.364309   -0.247860    0.669865
C       0.684600    0.840178    1.674326
N      -0.502809    1.477582    2.234631
C      -0.792192    2.792128    2.058789
O      -0.105501    3.591348    1.454266
H       0.392708    2.184269   -0.815646
H       0.019960    1.460658   -2.387617
H      -1.261701    1.762561   -1.210281
H      -0.783317   -0.662989   -1.155334
H       1.376347   -1.643663   -0.696673
H       2.524137    1.230782   -0.561619
H       3.400266   -0.218851   -0.061776
H       2.939950    0.004087   -1.752536
H      -0.122357   -1.107793    1.127671
H       1.281587    0.415374    2.491923
H       1.269711    1.649514    1.238488
H      -1.173423    0.908563    2.726644
H      -1.748338    3.070260    2.545379
