22

C       0.060993    1.585850    0.139277
C       0.035128    0.057923    0.055002
C      -1.386983   -0.510312   -0.024936
C      -1.418457   -2.042983   -0.055643
O      -0.760766   -2.603064    1.069590
C      -2.861677   -2.609573   -0.179767
C      -3.586085   -2.204102   -1.479642
C      -2.834247   -4.072804   -0.065986
N      -2.845190   -5.226780   -0.007630
H       1.087256    1.961589    0.192020
H      -0.415920    2.043181   -0.734964
H      -0.469607    1.944225    1.028719
H       0.600535   -0.272597   -0.826003
H       0.544188   -0.377314    0.920811
H      -1.975203   -0.162539    0.839249
H      -1.887174   -0.110847   -0.914610
H      -0.841929   -2.401441   -0.917379
H      -1.198786   -2.283386    1.866999
H      -3.439969   -2.233621    0.676796
H      -2.996382   -2.489307   -2.355824
H      -4.555309   -2.703081   -1.548793
H      -3.755782   -1.126082   -1.509018
