21

C      -0.151391    0.020345   -1.104306
O      -0.099993   -0.956456   -0.088167
C       0.655100   -0.592282    1.058365
C       0.320917   -1.584531    2.145128
C       0.536424   -1.212636    3.589337
C      -0.863019   -1.348641    3.045470
C       2.145031   -0.588989    0.751470
C       2.881053    0.636887    0.413091
O       2.979800    0.057540    1.713512
H       0.822954    0.185348   -1.584965
H      -0.854380   -0.341862   -1.858653
H      -0.514117    0.986762   -0.719783
H       0.376109    0.422054    1.394057
H       0.523819   -2.614551    1.864631
H       0.908493   -1.977639    4.261269
H       0.913265   -0.218286    3.799947
H      -1.441477   -0.443552    2.891815
H      -1.454501   -2.206286    3.345366
H       2.531887   -1.540532    0.381937
H       3.781685    0.577870   -0.196583
H       2.350135    1.587274    0.366399
