16

O      -0.759776    0.914490    0.808156
C       0.179191    0.831554    0.059920
C       1.276366    1.890111   -0.058997
C       1.419818    2.667882    1.251679
O       2.283134    3.784259    1.103971
C       3.622775    3.448990    1.099971
O       4.119930    2.902115   -0.124986
C       3.611099    1.752127   -0.636883
N       2.452592    1.253032   -0.614853
H       0.327688   -0.031785   -0.622821
H       0.908986    2.607555   -0.814014
H       0.442892    3.050210    1.549998
H       1.790636    2.003924    2.046808
H       4.194162    4.367964    1.234720
H       3.846581    2.726913    1.901518
H       4.392559    1.236612   -1.195523
