15

N       0.095988    1.410059    0.141422
C       0.003342    0.018499    0.035675
C      -1.160038   -0.692999    0.007162
C      -1.198792   -2.143165   -0.000508
O      -2.226201   -2.810969   -0.014922
C       0.146545   -2.771610   -0.019103
O       0.142762   -4.128142   -0.060741
C       1.268896   -2.016925   -0.001482
N       1.204271   -0.631312    0.012823
H       0.718134    1.828728   -0.540441
H      -0.810240    1.855640    0.098255
H      -2.110626   -0.173818   -0.024451
H       1.049603   -4.453324   -0.068018
H       2.269277   -2.434546   -0.013601
H       2.031512   -0.110011    0.252450
