17

C      -0.110016    1.428940    0.000987
C       0.009095   -0.062575    0.039840
C       0.209819   -1.072181   -1.086908
C       0.626322   -2.098609    0.009065
C       0.626729   -0.996911    1.115800
O      -0.465359   -1.623629    1.838357
C      -0.837730   -2.186537    0.557745
C      -1.129849   -1.002516   -0.405685
O      -2.318108   -0.564228   -0.939966
H       0.862139    1.916071   -0.130553
H      -0.755231    1.739927   -0.827487
H      -0.550354    1.811313    0.929998
H       0.499379   -0.938285   -2.118985
H       1.319814   -2.931214   -0.070825
H       1.453416   -0.677754    1.750385
H      -1.485051   -3.061025    0.610102
H      -2.812736   -0.105893   -0.249788
