22

C      -0.077561    1.470748   -0.328988
C      -0.010523    0.037759   -0.078793
C       0.055536   -1.147671    0.121323
C       0.102200   -2.586240    0.371143
C      -1.284926   -3.214694    0.389630
N      -1.830220   -3.682913   -0.894725
C      -1.567419   -4.663953    0.178990
C      -0.465388   -5.662376   -0.117045
C      -2.757887   -5.257534    0.908598
H       0.599087    2.024661    0.331495
H       0.200586    1.709153   -1.361725
H      -1.089244    1.857961   -0.163140
H       0.710720   -3.073958   -0.397005
H       0.596476   -2.777324    1.333862
H      -1.972565   -2.697567    1.057786
H      -2.823740   -3.474475   -0.957773
H       0.329967   -5.219021   -0.717924
H      -0.029064   -6.051686    0.809886
H      -0.867750   -6.513159   -0.678639
H      -3.231856   -6.040320    0.304186
H      -2.454551   -5.714505    1.857388
H      -3.512160   -4.495351    1.129808
