18

C       0.245744    1.217238   -0.318652
C       0.404756   -0.285043   -0.027902
C       0.994444   -0.572316    1.321088
C       2.292031   -0.701341    1.787351
N       2.159414   -0.902011    3.120318
N       0.859225   -0.899588    3.490801
N       0.170167   -0.703505    2.409776
O       3.540188   -0.662876    1.290214
C       3.685549   -0.716109   -0.124048
H       1.214948    1.728057   -0.333322
H      -0.236282    1.378351   -1.288254
H      -0.366899    1.692248    0.452801
H      -0.581733   -0.759345   -0.050153
H       0.991919   -0.755892   -0.821820
H       2.891275   -1.050840    3.796453
H       3.230621    0.156328   -0.605189
H       4.759525   -0.714114   -0.313906
H       3.243868   -1.632364   -0.530875
