25

C       0.081163    1.510109   -0.220190
C      -0.118386    0.012060    0.049569
C       0.628450   -0.471001    1.263483
C       2.074695   -0.884551    1.230084
C       1.041969   -1.885414    1.677993
C       0.579798   -1.632984    3.128584
C      -0.688035   -2.430694    3.440994
C       1.616858   -1.819398    4.235110
C       0.237176   -0.152169    2.717679
H       1.138249    1.740884   -0.388018
H      -0.480539    1.832479   -1.102580
H      -0.258477    2.112692    0.629151
H      -1.190599   -0.194053    0.172128
H       0.205686   -0.564832   -0.826292
H       2.481103   -1.064098    0.238659
H       2.795875   -0.466106    1.928512
H       0.893859   -2.819437    1.144431
H      -0.465967   -3.500753    3.530420
H      -1.137725   -2.102238    4.385025
H      -1.435810   -2.310516    2.649967
H       2.540203   -1.270875    4.028030
H       1.229160   -1.463899    5.197169
H       1.877473   -2.877675    4.353521
H       0.822956    0.634682    3.205684
H      -0.824735    0.078067    2.844407
