19

C       0.108605    1.422731   -0.034630
C       0.076611   -0.029241   -0.014256
C       0.049737   -1.233503    0.001399
C      -0.064165   -2.672221    0.029651
O      -1.112119   -3.268808    0.113205
O       1.148212   -3.250539   -0.053651
C       1.182177   -4.705497   -0.046123
C       2.462076   -5.095328   -0.769988
C       1.116916   -5.210928    1.391423
H       1.133882    1.801136    0.030692
H      -0.335318    1.805990   -0.959821
H      -0.462152    1.837268    0.803199
H       0.304231   -5.055375   -0.596258
H       3.339677   -4.713069   -0.239526
H       2.541749   -6.184872   -0.827900
H       2.471548   -4.693006   -1.786372
H       1.957404   -4.821582    1.974704
H       0.181851   -4.903792    1.864369
H       1.165112   -6.304314    1.405253
