18

O      -0.699468    0.889889   -0.669948
C       0.092074    1.158558    0.199171
C       1.359778    1.933847   -0.005012
C       2.653632    1.231520    0.419523
C       3.641885    2.411395    0.224220
C       2.654698    3.466459   -0.243794
C       1.598191    2.871507   -1.216205
C       0.608237    3.841492   -0.559130
N       1.400014    3.350136    0.662443
H      -0.066472    0.824101    1.250119
H       2.600722    0.887208    1.456353
H       2.873397    0.368858   -0.215467
H       4.139011    2.704636    1.152419
H       4.411004    2.205631   -0.525411
H       3.002570    4.491250   -0.386923
H       1.711645    2.595029   -2.269156
H       0.741608    4.910217   -0.746557
H      -0.450023    3.576239   -0.546266
