14

O       0.023651    1.438818    0.006854
C      -0.016344    0.035517    0.002044
C      -1.443367   -0.443139    0.012750
N      -2.438863    0.377571    0.023825
C      -3.712023   -0.152809    0.033113
C      -3.926425   -1.479932    0.030875
O      -2.903856   -2.362787    0.019362
C      -1.594359   -1.913247    0.009446
O      -0.697386   -2.713300   -0.000965
H       0.948062    1.703037   -0.002880
H       0.476694   -0.403853   -0.881902
H       0.491994   -0.410284    0.874039
H      -4.538783    0.546027    0.042359
H      -4.893597   -1.966534    0.037709
