14

C       0.000952    1.508589   -0.105908
C      -0.000617    0.014290    0.071881
O       0.012792   -0.570933    1.122584
N      -0.020243   -0.742055   -1.137273
C      -0.025809   -2.108355   -1.254283
C      -0.045863   -2.302613   -2.608171
O      -0.058890   -3.458248   -3.287944
N      -0.051656   -1.092034   -3.243351
N      -0.036176   -0.148017   -2.354503
H       0.870580    1.824145   -0.687620
H      -0.882996    1.828990   -0.662854
H       0.016196    1.966515    0.882311
H      -0.015333   -2.760240   -0.401198
H      -0.071854   -3.234582   -4.227574
