19

O      -0.042573    1.331117    0.852252
C       0.007358    0.160953    0.040205
C       0.943090   -0.939846    0.634212
C       0.102319   -1.717431    1.697120
C      -1.294039   -1.572197    1.151365
C      -2.706113   -1.237453    1.672395
C      -2.756055   -0.058459    0.626725
C      -1.350616   -0.484171    0.169382
O      -1.400435   -1.846073   -0.254619
H       0.810175    1.771344    0.787620
H       0.294632    0.416059   -0.989742
H       1.255946   -1.617818   -0.163016
H       1.844072   -0.490294    1.063069
H       0.445123   -2.749688    1.816439
H       0.159312   -1.229728    2.676144
H      -3.446511   -2.033120    1.564929
H      -2.705118   -0.877472    2.703567
H      -3.535088   -0.098924   -0.137740
H      -2.755312    0.920994    1.106044
