20

C      -0.077069    1.462635   -0.149780
C       1.350654    1.936395    0.257330
C       2.240411    0.735485   -0.105856
C       3.494983    0.323714    0.706629
C       3.420546   -1.212136    0.752818
N       2.476020   -1.710105    1.771143
C       2.056830   -1.665398    0.338140
C       1.282551   -0.435158    0.036362
C       0.010848   -0.048057   -0.004405
H      -0.860474    1.902737    0.477047
H      -0.312966    1.752185   -1.185130
H       1.643723    2.872845   -0.225727
H       1.380064    2.093706    1.341885
H       2.538929    0.806567   -1.164460
H       4.423798    0.666056    0.241670
H       3.460518    0.720548    1.726584
H       4.305376   -1.802601    0.536466
H       2.714498   -2.673766    2.001337
H       1.883382   -2.602905   -0.179538
H      -0.861818   -0.686708    0.071824
