18

C      -0.041643    1.535745    0.009989
C      -0.003066   -0.008641    0.002452
C       0.896283   -0.502630   -1.185527
C       2.235981   -0.743504   -0.538310
C       2.158467   -0.751913    0.790549
C       0.752430   -0.518241    1.280612
C      -1.362742   -0.534269   -0.080159
C      -2.485642   -0.959931   -0.148441
H       0.976677    1.932733    0.071863
H      -0.509608    1.916909   -0.902039
H      -0.612680    1.905711    0.866209
H       0.499085   -1.425638   -1.625880
H       0.928442    0.238703   -1.992212
H       3.136414   -0.920544   -1.116154
H       2.985753   -0.936876    1.466871
H       0.690017    0.212829    2.094855
H       0.307399   -1.446439    1.660108
H      -3.475162   -1.340008   -0.208455
