20

C      -0.048993    1.569115   -0.062415
C       0.046139    0.052485    0.002881
C      -1.293077   -0.589033   -0.364728
O       1.095003   -0.516627   -0.871533
C       1.537026   -1.409935    0.179224
C       2.783101   -0.962156    0.961102
C       2.874703    0.498564    1.006535
N       1.919551   -0.155466    1.937475
C       0.685957   -0.675093    1.209208
H      -0.184109    1.882307   -1.103117
H      -0.920817    1.908670    0.505625
H       0.826762    2.075362    0.341259
H      -1.572011   -0.309658   -1.385380
H      -1.232556   -1.680198   -0.316868
H      -2.084002   -0.256853    0.315824
H       1.453495   -2.465800   -0.084863
H       3.560098   -1.631801    1.316228
H       3.710120    0.929116    1.550236
H       2.540551    1.065110    0.148128
H       0.023478   -1.157484    1.926897
