17

C      -0.280964    1.529019    0.020496
C       0.082790    0.065434   -0.051297
O       1.402888   -0.155761   -0.678694
C       1.921060   -0.690408    0.473849
N       3.073597   -1.082684    0.771360
C       0.603895   -0.620786    1.234864
O       0.547893    0.196869    2.381113
C       1.284285   -0.210370    3.449456
N       1.200122    0.437104    4.526862
H       0.469398    2.094063    0.576545
H      -0.366250    1.940100   -0.989212
H      -1.242973    1.648104    0.527758
H      -0.666943   -0.518992   -0.590943
H       3.731259   -0.959190   -0.000517
H       0.161332   -1.603740    1.430451
H       1.910325   -1.084423    3.243660
H       1.812981    0.022873    5.226409
