18

C       0.006985    1.351726    0.010923
O       0.024395   -0.074969    0.038075
C       0.666841   -0.610453    1.086714
N       1.251729    0.034445    2.068672
C       1.756163   -0.960674    2.883725
N       2.510419   -0.607118    4.007046
C       1.463161   -2.198803    2.380703
N       0.746274   -1.956405    1.197367
C       0.207363   -2.943946    0.290381
H       1.024745    1.751485   -0.020647
H      -0.538513    1.624897   -0.893200
H      -0.496908    1.750537    0.896298
H       2.270773    0.325921    4.317143
H       2.419709   -1.262424    4.771801
H       1.683972   -3.199198    2.710180
H      -0.520146   -3.586729    0.798273
H      -0.291020   -2.428056   -0.530295
H       1.003896   -3.574537   -0.119557
