18

C       0.044590    1.439043   -0.268363
C       0.040591   -0.040268    0.042824
C       1.330994   -0.840617    0.001768
C       0.646293   -0.566494    1.319075
O       1.215426    0.393822    2.175315
C      -0.053811   -1.698246    2.062807
C       0.919818   -2.579569    2.813518
O       0.974913   -3.779089    2.722432
H       0.908121    1.929440    0.186128
H       0.075799    1.609740   -1.349634
H      -0.855350    1.925646    0.122576
H      -0.845021   -0.572280   -0.295770
H       1.317515   -1.850136   -0.395342
H       2.242925   -0.287080   -0.200851
H       2.128599    0.145285    2.349056
H      -0.739308   -1.248170    2.794591
H      -0.633527   -2.326296    1.381412
H       1.618540   -2.027065    3.484338
