18

C       0.094050    1.504971    0.095482
C       0.080740   -0.023628    0.018385
C       0.597536   -0.562397   -1.309691
O       1.962414   -0.119527   -1.522548
C       2.779784   -1.123290   -1.949670
O       3.891545   -0.931350   -2.346682
C       2.030045   -2.422298   -1.844414
N       1.587459   -2.659701   -0.441053
C       0.656979   -2.079512   -1.418958
H       1.108388    1.890166   -0.035100
H      -0.536863    1.949067   -0.682738
H      -0.280164    1.848235    1.064191
H       0.688189   -0.459965    0.816970
H      -0.942053   -0.400080    0.151010
H       0.002606   -0.160618   -2.141071
H       2.304710   -3.250149   -2.484382
H       1.390918   -3.653398   -0.338776
H      -0.216583   -2.632359   -1.744642
