18

C      -0.206621    1.392693    0.366214
C       0.079799   -0.071740    0.130700
C       1.417042   -0.530006   -0.401909
C       1.022409   -0.844675    1.019658
N       1.724073   -0.165757    2.070689
C       1.098221    0.028318    3.289899
N       1.960134    0.457989    4.295723
O      -0.085059   -0.174455    3.476471
H       0.695357    1.925614    0.678924
H      -0.579823    1.869176   -0.546611
H      -0.956879    1.515505    1.153080
H      -0.779330   -0.648557   -0.200190
H       1.461253   -1.345547   -1.114973
H       2.177222    0.232198   -0.542865
H       0.737262   -1.870593    1.243382
H       2.723690   -0.304094    2.095798
H       2.741125    1.035801    4.021517
H       1.460595    0.807867    5.099564
