20

C      -0.147077    1.510574    0.006469
C      -0.032202    0.002376    0.056555
C       1.312688   -0.677011   -0.150461
C       0.655064   -0.686624    1.195507
C       1.262758   -0.181421    2.474575
C       0.396449   -0.643916    3.606692
C      -0.767663   -1.438850    3.039456
C       0.274228   -1.919070    2.006859
N       1.421308   -1.577099    3.023248
H       0.733561    1.988375    0.448387
H      -0.234226    1.868558   -1.025318
H      -1.025367    1.863650    0.558310
H      -0.885344   -0.529354   -0.360946
H       1.345744   -1.600668   -0.720031
H       2.182942   -0.040992   -0.286189
H       2.041845    0.561161    2.606251
H       0.509363   -0.250296    4.611041
H      -1.055611   -2.242891    3.721765
H      -1.658889   -0.917521    2.675121
H       0.228812   -2.909007    1.555840
