16

C       0.103234   -0.057602   -1.247158
C       0.036999    0.589003   -0.235847
C      -0.000861    1.369854    1.007448
N       1.202379    2.139787    1.306534
C       1.528771    3.201945    0.447488
C       2.722645    3.901053    0.406940
N       2.552517    4.882349   -0.521074
N       1.340020    4.876955   -1.085202
C       0.708984    3.855164   -0.505790
H       0.155194   -0.620958   -2.145902
H      -0.851681    2.060740    0.984804
H      -0.181672    0.696290    1.852588
H       1.992468    1.531768    1.478074
H       3.643760    3.779973    0.953661
H       3.222730    5.574019   -0.808590
H      -0.301343    3.616823   -0.799791
