18

N       0.797088   -0.007166   -0.375855
C      -0.371886    0.592543   -0.051112
O      -0.512195    1.777213    0.197380
C      -1.563271   -0.355695    0.011421
O      -1.238255   -1.748507   -0.221824
C      -1.720426   -2.138384    1.091619
C      -2.070583   -0.690918    1.416846
C      -1.864765    0.079028    2.683148
C      -3.258170   -0.134472    2.134317
H       1.636550    0.542605   -0.446611
H       0.804494   -0.996023   -0.565132
H      -2.327902    0.007259   -0.686426
H      -2.566439   -2.832289    1.015772
H      -0.927713   -2.596510    1.696222
H      -1.573036   -0.473228    3.571025
H      -1.429788    1.068081    2.591991
H      -3.763932    0.715806    1.688568
H      -3.914001   -0.831115    2.647456
