15

C      -0.121537    1.523763   -0.152168
C       0.075081    0.014323   -0.006657
O       0.788577   -0.316932    1.215746
C       0.134024   -0.170485    2.390499
O       0.668990   -0.355724    3.439874
C      -1.268220   -0.761217   -0.038464
O      -2.309839   -0.277985   -0.381850
C       0.867828   -0.544325   -1.097964
C       1.454845   -1.023515   -2.029772
H       0.848535    2.023363   -0.129347
H      -0.619139    1.739546   -1.098848
H      -0.748175    1.908670    0.656051
H      -0.926714    0.122769    2.277504
H      -1.162762   -1.823506    0.267302
H       1.995217   -1.436428   -2.846602
