20

O       0.211099    1.358103   -0.092535
C       0.046958   -0.049439    0.022092
C      -1.440522   -0.348853    0.141757
N      -2.155122   -0.077534   -1.087107
C      -2.483384    1.332524   -1.435391
C      -3.924333    0.909003   -1.769838
O      -4.098345    0.334112   -3.080775
C      -3.940749   -1.014474   -2.568690
C      -3.577387   -0.477076   -1.175184
H       1.123435    1.537857   -0.335667
H       0.442309   -0.571682   -0.860777
H       0.565623   -0.435890    0.914391
H      -1.554238   -1.415007    0.373367
H      -1.839644    0.219388    1.005464
H      -2.440178    2.007446   -0.569040
H      -1.889631    1.755469   -2.249990
H      -4.751052    1.562418   -1.483645
H      -4.888109   -1.568074   -2.620491
H      -3.148379   -1.569558   -3.081376
H      -4.019829   -0.926021   -0.282769
