15

C       0.048894    1.379571   -0.193707
C       1.481147    1.851420    0.164485
C       2.105062    0.569858    0.662235
N       3.357425    0.351906    1.022348
C       3.602781   -0.900334    1.447313
N       2.732557   -1.901694    1.540669
C       1.464325   -1.665417    1.173091
C       1.112163   -0.407367    0.715097
O      -0.103456    0.017777    0.306981
H      -0.735412    1.983398    0.266440
H      -0.117301    1.351512   -1.274887
H       2.013718    2.264355   -0.695802
H       1.484506    2.615607    0.948597
H       4.624612   -1.114010    1.747163
H       0.750189   -2.480374    1.248847
