19

O       0.004815   -0.119611    0.071047
C      -0.012304    1.101997    0.043080
N      -1.214715    1.783248    0.016488
C      -1.480782    3.205122    0.207695
C      -0.818834    4.056385   -0.855144
C      -0.076967    5.316376   -0.483316
C       0.689264    4.077076   -0.874755
C       1.401723    3.244656    0.170198
N       1.169875    1.815955   -0.014567
H      -1.981026    1.143374    0.148674
H      -2.566816    3.329251    0.162755
H      -1.180035    3.543498    1.208922
H      -1.312266    4.035852   -1.821852
H      -0.097406    6.149235   -1.176608
H      -0.067413    5.610638    0.562069
H       1.157768    4.069745   -1.853976
H       2.482408    3.398515    0.097088
H       1.117935    3.574992    1.179032
H       1.956625    1.197386    0.097408
