15

C       0.136124    1.611979   -0.097297
C      -0.067529    0.095023    0.067841
C       0.567636   -0.452385    1.293043
C       0.102287   -1.058885    2.425906
N       1.170921   -1.365434    3.271321
C       2.199705   -0.939894    2.626067
O       1.922193   -0.374108    1.421349
C      -1.248852   -1.354224    2.740972
N      -2.361700   -1.580136    2.965903
H       1.199513    1.860881   -0.146598
H      -0.338904    1.956447   -1.019484
H      -0.304625    2.159276    0.740615
H      -1.134011   -0.144381    0.114756
H       0.338219   -0.427747   -0.807316
H       3.237547   -0.976213    2.916835
