21

C      -0.509917    1.256126   -0.255048
C      -0.081882   -0.168106    0.006823
C       1.358073   -0.629987   -0.208522
C       2.394601    0.248813   -0.791001
C       3.179916    1.161894   -0.218498
C       3.286692    1.620547    1.208821
C       2.220749    1.324581    2.226321
C       1.215169    0.448861    2.215678
C       0.808864   -0.537073    1.191508
H       0.275304    1.968278    0.005870
H      -0.755961    1.400098   -1.312977
H      -1.400569    1.508510    0.331016
H      -0.838558   -0.908674   -0.241168
H       1.427749   -1.647363   -0.589595
H       2.528347    0.101358   -1.862772
H       3.886060    1.671476   -0.873172
H       4.249820    1.259045    1.610837
H       3.422929    2.712768    1.189485
H       2.318830    1.937477    3.121675
H       0.581041    0.431858    3.102201
H       0.556401   -1.499857    1.632440
