19

C      -0.091509    1.420760    0.121829
C       1.318714    0.860064   -0.003987
C       2.030477    0.547131    1.268198
C       1.407810   -0.411194    1.963951
C       0.199400   -0.939929    1.229017
C       0.326688   -2.328041    0.562468
O      -0.489257   -2.253208   -0.599186
C      -0.363793   -0.946287   -1.160638
C       0.102062   -0.054406   -0.018775
H      -0.404495    1.824897    1.080284
H      -0.478689    1.952878   -0.742510
H       1.878273    1.090915   -0.905032
H       2.934414    1.060045    1.578321
H       1.702806   -0.767279    2.944602
H      -0.710521   -0.912798    1.840593
H       1.378753   -2.523663    0.299305
H      -0.042668   -3.155704    1.173424
H       0.354324   -0.950884   -1.995426
H      -1.345213   -0.662514   -1.556768
