19

O       0.144214    1.401694    0.145688
C       0.059607    0.022162    0.103352
C      -0.335633   -0.720432   -1.142313
C      -1.203061   -0.821313    0.095138
C      -0.560116   -1.814635    1.080547
C       0.714249   -0.905796    1.132840
C      -1.299044   -1.997871    2.383168
C      -0.624538   -2.209846    3.668596
O      -1.231211   -0.953167    3.356401
H       0.876458    1.678013   -0.416162
H      -0.742239   -0.084861   -1.922882
H       0.223356   -1.583609   -1.500381
H      -2.241380   -0.512294    0.096680
H      -0.395696   -2.808616    0.644114
H       1.674231   -1.360622    0.867123
H       0.787472   -0.406354    2.100966
H      -2.300317   -2.420501    2.271276
H      -1.115941   -2.785191    4.451751
H       0.463796   -2.201862    3.711849
