13

C       0.007392    1.472192   -0.043873
C       0.000461   -0.017758    0.016393
N      -0.078422   -0.776213   -1.073277
N      -0.053195   -2.023697   -0.563230
C       0.038224   -1.982133    0.789830
N       0.074076   -0.715947    1.184842
C       0.083913   -3.143797    1.593717
C       0.120770   -4.151361    2.249507
H       0.923261    1.871692    0.402119
H      -0.059274    1.806783   -1.080235
H      -0.835264    1.884567    0.519343
H      -0.100079   -2.826895   -1.168935
H       0.154374   -5.032668    2.841887
