20

C       0.101929    2.236582    1.212756
C      -0.686846    0.941695    1.404780
N       0.215296   -0.142391    1.778438
C      -0.231264   -1.537848    1.744220
C      -1.634086   -1.955854    1.355193
C       0.785146   -1.038394    0.764010
C       0.518408   -0.914437   -0.721733
H       0.807202    2.146615    0.380155
H      -0.571002    3.072541    0.996267
H       0.675766    2.470819    2.113636
H      -1.401071    1.065799    2.228066
H      -1.284935    0.744201    0.502193
H       0.149378   -2.111574    2.590665
H      -2.015570   -1.437046    0.474116
H      -1.657779   -3.030649    1.144611
H      -2.333164   -1.769192    2.178219
H       1.826458   -1.285090    0.975155
H      -0.530038   -0.736721   -0.966484
H       1.104998   -0.096791   -1.155409
H       0.821666   -1.837526   -1.227818
