21

C       0.092723    1.519942    0.028635
C       0.019235   -0.007156   -0.082215
C       0.641512   -0.536719   -1.339753
O       2.066300   -0.192781   -1.630349
C       1.644781   -1.050838   -2.755757
C       0.942929   -2.012357   -1.764638
C       1.790910   -2.879014   -0.853114
C       0.352008   -0.183052   -2.821028
O      -0.843806   -0.672430   -3.363389
H       1.129995    1.860774   -0.028904
H      -0.464471    2.002521   -0.780586
H      -0.330423    1.862003    0.977437
H       0.518936   -0.473243    0.775851
H      -1.024452   -0.344964   -0.059917
H       2.389460   -1.260651   -3.525283
H       0.081984   -2.540549   -2.180954
H       2.639394   -2.313654   -0.461283
H       1.201785   -3.253820   -0.008798
H       2.174809   -3.751278   -1.393370
H       0.550840    0.864797   -3.069912
H      -0.855807   -0.471749   -4.304261
