11

O       0.023255    1.326058    0.007696
C      -0.003745   -0.005885    0.000934
C      -1.194891   -0.674604    0.003721
C      -1.219876   -2.095250   -0.003565
O      -2.100490   -2.892634   -0.002661
O       0.158191   -2.679139   -0.013555
C       1.190112   -1.890973   -0.014827
F       2.313076   -2.556954   -0.024146
N       1.227346   -0.609410   -0.008545
H       0.953620    1.593115    0.004210
H      -2.138916   -0.150474    0.011445
