15

N       0.105260    1.324072    0.192336
C       0.077916   -0.062860    0.080441
N      -1.063917   -0.734395   -0.026101
N      -0.677377   -2.025004   -0.191380
C       0.661816   -2.182790   -0.173242
C       1.206267   -0.926049   -0.006875
C       2.657636   -0.538931    0.023416
C       3.002704    0.248622    1.213357
N       3.229443    0.898505    2.142164
H       0.772221    1.660072    0.876920
H      -0.815991    1.698779    0.380496
H      -1.382513   -2.732259   -0.298722
H       1.127680   -3.149847   -0.284583
H       3.294242   -1.429279   -0.001232
H       2.926618    0.063965   -0.854444
