19

C      -0.078518    1.603761    0.000387
C       1.438141    1.257010   -0.003466
C       1.222917    0.028718    0.932807
C       1.874129   -1.000824   -0.010885
C       1.136654   -2.347567   -0.009176
O      -0.205202   -2.252918   -0.488089
C      -0.953297   -1.118879   -0.044213
C      -0.026188    0.064074   -0.012814
C       1.228201    0.037466   -0.957584
H      -0.471308    2.079366    0.905358
H      -0.476641    2.094463   -0.894239
H       2.289906    1.938832    0.002008
H       1.186443    0.037365    2.024706
H       2.963290   -1.115356    0.003392
H       1.621496   -3.064310   -0.680018
H       1.155976   -2.779055    1.007049
H      -1.768384   -0.999837   -0.766622
H      -1.401799   -1.304042    0.946230
H       1.198325    0.058929   -2.048026
