19

C      -0.279165    1.555386   -0.004686
C       0.041374    0.063458   -0.010306
O       0.715720   -0.325218   -1.223398
C       2.006947   -0.804911   -0.875997
C       2.903620    0.339265   -0.295093
C       2.430136   -0.101772    1.087963
O       3.043247    0.194278    2.287968
C       1.918086   -1.438005    0.534009
C       0.955182   -0.429707    1.105435
H       0.629565    2.162363    0.013736
H      -0.857090    1.822302   -0.894061
H      -0.875931    1.807614    0.878722
H      -0.903313   -0.498607    0.029888
H       2.401639   -1.382511   -1.710121
H       3.967858    0.109665   -0.426663
H       2.703149    1.356234   -0.645323
H       3.974287   -0.045990    2.216933
H       2.033375   -2.467703    0.843060
H       0.544097   -0.607037    2.092467
