13

O       0.102882    1.340480    0.205941
C       0.065975   -0.021956    0.056388
C      -0.042568   -0.699458   -1.142289
N      -0.074219   -2.038560   -1.232979
C       0.003933   -2.704191   -0.107117
F      -0.028005   -4.033049   -0.202773
C       0.116163   -2.149030    1.165850
C       0.148036   -0.766277    1.248418
O       0.254947   -0.146899    2.440589
H       0.042262    1.768143   -0.653963
H      -0.107516   -0.146854   -2.078567
H       0.176033   -2.765809    2.052533
H       0.259510    0.806356    2.279578
