17

C      -0.033675    1.545260    0.015045
C      -0.156514    0.020089    0.038166
C       0.616674   -0.607263    1.181909
O       0.104312   -0.174191    2.435591
C       0.173005   -1.270935    3.341235
C       0.748766   -2.421518    2.491030
O       0.477859   -2.008749    1.162451
H       1.009680    1.859104   -0.101082
H      -0.602382    1.968835   -0.817517
H      -0.412525    1.977889    0.944758
H      -1.202984   -0.285610    0.141657
H       0.220856   -0.412622   -0.895121
H       1.691009   -0.339955    1.125348
H       0.813488   -1.025832    4.197025
H      -0.835241   -1.492415    3.710582
H       1.831711   -2.531574    2.654162
H       0.264871   -3.385056    2.663946
