19

C      -0.127252    1.543443   -0.051238
C      -0.004889    0.017777   -0.009620
O      -1.294704   -0.583959   -0.007199
C       0.893718   -0.496948   -1.183410
C       2.224003   -0.748225   -0.536209
C       2.142269   -0.721653    0.803222
C       0.735401   -0.449811    1.272475
C       3.275590   -0.955183    1.699851
O       3.204084   -0.945145    2.909323
H       0.858085    2.018025    0.000400
H      -0.604673    1.872172   -0.982965
H      -0.728808    1.898530    0.790348
H      -1.812236   -0.187635   -0.716246
H       0.474132   -1.430983   -1.581089
H       0.950441    0.208667   -2.021421
H       3.133509   -0.951944   -1.093419
H       0.693633    0.286700    2.079985
H       0.264293   -1.363295    1.652501
H       4.242424   -1.145799    1.181047
