16

O      -0.108411    0.003843    0.039604
C      -0.088274    1.197359   -0.020533
C      -1.145603    2.290798   -0.276513
C       0.028362    3.268962   -0.579076
C       1.044712    2.255290    0.011758
C       1.767967    2.496510    1.361822
C       3.032318    2.101313    0.573956
O       2.278549    2.000216   -0.655920
H      -1.853329    2.081156   -1.081322
H      -1.710331    2.535956    0.628510
H       0.197085    3.395764   -1.651095
H      -0.004753    4.249261   -0.100560
H       1.739558    3.533364    1.701370
H       1.484586    1.832508    2.179560
H       3.821971    2.857228    0.505030
H       3.474063    1.139484    0.856096
