17

C       0.180627    1.388693   -0.263769
C      -0.038994   -0.065171   -0.048536
C      -1.077115   -0.795995    0.443032
C      -0.665248   -2.166824    0.405711
C       0.594496   -2.174707   -0.109656
O       0.985580   -0.897821   -0.393732
C       1.533031   -3.262998   -0.398246
C       2.671161   -3.119499   -1.320009
O       2.883028   -3.137028    0.089071
H       1.036784    1.754130    0.314479
H       0.377804    1.614475   -1.317956
H      -0.705493    1.946870    0.045955
H      -2.019350   -0.404493    0.793550
H      -1.228410   -3.030821    0.722975
H       1.101265   -4.253158   -0.259282
H       3.031547   -3.991861   -1.864675
H       2.837681   -2.159464   -1.804410
