19

C      -0.146709    1.563828   -0.050490
C      -0.000253    0.049218    0.001972
O       0.712998   -0.423847   -1.167395
C       1.817605   -1.179793   -0.714812
C       2.925849   -0.401377    0.007863
C       2.872569   -1.313382    1.213843
C       2.241421    0.053566    1.304703
C       0.808567   -0.498606    1.184455
C       1.487092   -1.803514    0.669314
H       0.832731    2.050049   -0.021220
H      -0.650051    1.865233   -0.973350
H      -0.742203    1.922832    0.796242
H      -1.000585   -0.410610   -0.014188
H       2.150974   -1.849384   -1.508655
H       3.772574    0.128689   -0.408024
H       3.654677   -1.787121    1.786071
H       2.589641    0.919945    1.851106
H       0.263590   -0.571467    2.126533
H       1.031219   -2.784552    0.775017
