20

C       0.431568    1.589691   -0.170040
C      -0.006052    0.131558    0.047784
C       0.385616   -0.813034   -1.121513
C       1.685873   -1.514122   -0.670213
C       1.632217   -1.409096    0.836234
N       2.534451   -2.105686    1.582919
C       0.685331   -0.511412    1.238017
C       0.364960   -0.175395    2.601338
O      -0.459850    0.654076    2.946593
H       1.509876    1.657553   -0.356138
H      -0.088581    2.030547   -1.027753
H       0.200909    2.187109    0.715519
H      -1.091225    0.131024    0.197162
H      -0.396626   -1.564081   -1.268164
H       0.507201   -0.279650   -2.068075
H       1.757304   -2.554675   -1.010309
H       2.586855   -1.005002   -1.038082
H       2.951770   -2.926385    1.175924
H       2.428829   -2.133279    2.584109
H       0.924665   -0.749559    3.381738
