18

O       0.500152    0.903444    0.702646
C       0.065907   -0.053041   -0.257860
C      -1.391983   -0.392552   -0.128611
C      -2.096185   -0.422863    1.072296
N      -3.359007   -0.825189    0.742230
C      -4.787447   -1.017295    1.040309
C      -4.976754   -1.293040   -0.502171
C      -3.484165   -1.018380   -0.598337
C      -2.275649   -0.755839   -1.201225
H      -0.127816    1.633142    0.667040
H       0.273668    0.285910   -1.285871
H       0.699007   -0.932379   -0.085270
H      -1.771081   -0.222602    2.079372
H      -4.993635   -1.858411    1.708210
H      -5.286208   -0.118532    1.414365
H      -5.302044   -2.307918   -0.746333
H      -5.632518   -0.579646   -1.008385
H      -2.019399   -0.806063   -2.248253
