12

O      -0.025955   -0.019119   -0.001878
C      -0.008653    1.189768    0.007343
C       1.231405    1.977392   -0.000293
C       2.502443    1.475072   -0.018202
O       3.391574    2.464400   -0.020345
N       2.734914    3.686250   -0.003706
C       1.451981    3.396244    0.008386
C       0.434046    4.485618    0.028099
O       0.696851    5.658580    0.035694
H      -0.949880    1.776629    0.022567
H       2.889745    0.468419   -0.030261
H      -0.614966    4.123449    0.035312
