15

O      -0.107058   -0.012297   -0.014725
C      -0.025195    1.197442   -0.017311
C       1.228510    1.938783   -0.000252
C       1.401439    3.275884   -0.001891
C       2.893138    3.469046    0.020639
C       3.524513    2.322863   -0.857364
O       4.664072    2.186750    0.052308
C       3.496831    2.328648    0.925249
C       2.634980    1.378924    0.023415
H      -0.934717    1.838736   -0.033573
H       0.643907    4.049079   -0.016156
H       3.350908    4.455692    0.024545
H       3.718043    2.305029   -1.932148
H       3.656886    2.317812    2.005618
H       2.814177    0.307594    0.029673
