18

C       0.030388    1.513654    0.173654
C      -0.052040   -0.001643   -0.022510
C       0.702027   -0.522294   -1.267221
O       2.086210   -0.178248   -1.221413
C       0.670845   -2.058703   -1.326255
N       1.343499   -2.530679   -2.526687
C       0.088583    0.050608   -2.489692
N      -0.399823    0.572272   -3.397997
H       1.066060    1.840914    0.313219
H      -0.391744    2.052126   -0.680496
H      -0.525715    1.812823    1.066085
H       0.378538   -0.514725    0.844218
H      -1.099773   -0.313436   -0.099695
H       2.178568    0.765397   -1.388938
H       1.111273   -2.409122   -0.377459
H      -0.373417   -2.386556   -1.348424
H       2.323054   -2.270112   -2.485537
H       1.297022   -3.541607   -2.585052
