12

O      -0.081995   -0.108662   -0.002549
C      -0.032543    1.089682    0.003766
C       1.256588    1.914547    0.000134
C       2.458343    1.092953   -0.013923
N       3.421476    0.456930   -0.025074
C      -1.315901    1.954510    0.016874
O      -1.231923    3.163438    0.022740
C      -2.557828    1.227397    0.021200
C      -3.599315    0.624449    0.024817
H       1.239790    2.588242   -0.864502
H       1.252098    2.576213    0.874200
H      -4.520340    0.092037    0.027613
