21

C      -0.078754    1.433942   -0.333916
O       1.120594    2.040214    0.143345
C       2.099212    1.034548    0.447840
C       1.549906   -0.262524   -0.164520
C       0.028009   -0.073681   -0.010166
C      -0.478612   -0.441172    1.366671
C      -0.033526    0.003422    2.544647
C       1.053792    1.016258    2.824105
C       2.329974    0.966643    1.966331
H      -0.935385    1.913304    0.150101
H      -0.163889    1.586317   -1.420875
H       3.037944    1.327546   -0.037838
H       1.814017   -0.315390   -1.226113
H       1.923104   -1.161403    0.329078
H      -0.519265   -0.655514   -0.756017
H      -1.310149   -1.142407    1.381315
H      -0.546707   -0.364645    3.431441
H       0.622476    2.021110    2.725092
H       1.351423    0.926451    3.874595
H       2.906233    0.060705    2.190365
H       2.956872    1.815982    2.261975
