19

C      -0.186131    1.544132    0.090597
C       0.076332    0.050074   -0.000388
C       0.771661   -0.571473   -1.253331
C       2.099648    0.134922   -1.643671
C       2.794837   -0.507330   -0.422717
O       2.420061    0.143084    0.812425
C       1.169981   -0.577317    0.901628
C       1.588917   -1.505130   -0.289911
O       1.561199   -2.875203   -0.392204
H       0.751154    2.105681    0.062845
H      -0.820258    1.888008   -0.733902
H      -0.693551    1.794660    1.028907
H      -0.848143   -0.516318    0.171045
H       0.133715   -0.942791   -2.054590
H       2.497717   -0.288727   -2.571675
H       2.117956    1.225423   -1.708650
H       3.861184   -0.742372   -0.457703
H       0.932873   -0.862658    1.929783
H       2.117081   -3.249410    0.301470
