20

C       0.083776    1.327380   -0.382435
C      -0.048937   -0.118722    0.034587
N       1.053831   -1.053048   -0.107824
C       2.268243   -0.823488   -0.716009
O       2.420148   -0.275165   -1.782494
C       0.628723   -0.715345    1.250457
C       1.538810    0.099598    2.146935
C      -0.062463   -1.874452    1.953806
O       0.867816   -2.848295    2.394657
H       1.023442    1.775042   -0.055357
H       0.045598    1.407975   -1.471763
H      -0.742605    1.909052    0.038547
H      -1.011550   -0.558940   -0.228353
H       3.104192   -1.278423   -0.147690
H       2.141533    0.821031    1.591816
H       0.946245    0.645701    2.888661
H       2.212061   -0.570219    2.689127
H      -0.576214   -1.514481    2.851743
H      -0.815311   -2.313542    1.283941
H       1.281218   -3.214912    1.604596
