27

C       0.970967   -0.353738   -1.018390
C       0.028648    0.087933    0.110405
C      -0.124335    1.615945    0.115848
C      -1.357237   -0.576543    0.018069
C      -1.411215   -2.116429    0.069658
C      -0.759065   -2.679092    1.342081
C      -2.882496   -2.577876   -0.084811
C      -3.045627   -4.076457   -0.345650
O      -3.690125   -2.159955    1.016320
H       1.935634    0.159989   -0.947652
H       1.169722   -1.429749   -0.994845
H       0.541306   -0.116724   -1.999584
H       0.488910   -0.196641    1.066235
H      -0.569887    1.968270   -0.822395
H      -0.770919    1.948760    0.934594
H       0.845262    2.112529    0.228870
H      -1.993992   -0.192964    0.824689
H      -1.830203   -0.248014   -0.919188
H      -0.870979   -2.517898   -0.798526
H      -0.824964   -3.770626    1.388676
H       0.302066   -2.422201    1.393199
H      -1.234191   -2.269404    2.241229
H      -3.304048   -2.037859   -0.942022
H      -2.682317   -4.676918    0.496469
H      -4.102473   -4.314979   -0.493934
H      -2.492105   -4.386291   -1.238101
H      -3.463884   -2.714040    1.770694
