19

C      -0.046854   -1.150148    0.137016
C      -0.064424    0.051930    0.037989
C      -0.040792    1.458381   -0.079838
C      -1.075320    2.304824   -0.169089
C      -2.504790    2.522334    0.255588
C      -1.979204    3.873771    0.875567
C      -0.693398    3.747558   -0.024159
C       0.767365    3.688040    0.465600
C       1.255467    2.287926   -0.025236
H      -0.046641   -2.208223    0.222117
H      -3.186520    2.708467   -0.581205
H      -2.953599    1.779675    0.918862
H      -2.605405    4.757102    0.730650
H      -1.742932    3.761234    1.936506
H      -0.809826    4.337934   -0.941649
H       1.394106    4.505065    0.097189
H       0.796982    3.716531    1.560720
H       1.987707    1.837842    0.651518
H       1.733326    2.348284   -1.011930
