16

O      -0.089468    1.463655   -0.077460
C       0.022712    0.053006    0.024910
C      -1.392141   -0.511791    0.021823
C      -1.423560   -2.064097    0.058508
C      -0.796519   -2.600256    1.273190
C      -0.273667   -3.025034    2.267669
C      -2.795959   -2.559472   -0.089973
C      -3.926549   -2.940329   -0.225798
H       0.790894    1.841440    0.003886
H       0.591395   -0.365232   -0.823232
H       0.541279   -0.246146    0.946946
H      -1.945546   -0.118354    0.879066
H      -1.909394   -0.179613   -0.883151
H      -0.842989   -2.426415   -0.803698
H       0.181536   -3.410089    3.146523
H      -4.923587   -3.287142   -0.341048
