16

N      -0.633747    1.200464   -0.331821
C      -0.355005    0.004187   -0.087075
O       0.841596   -0.600018    0.239272
C       0.189180   -1.896003    0.415715
C      -1.167943   -1.274205    0.017905
C      -2.285132   -1.290731    1.055632
O      -3.464762   -0.680624    0.538966
C      -3.712382    0.611699    0.866720
O      -4.673705    1.190954    0.467069
H       0.188668    1.803803   -0.282372
H       0.601657   -2.642596   -0.265636
H       0.277174   -2.236721    1.451450
H      -1.556362   -1.620329   -0.942302
H      -2.556646   -2.321550    1.302105
H      -1.964541   -0.792632    1.979851
H      -2.946217    1.038838    1.537549
