11

N       0.057039    1.387940    0.160424
C      -0.023519    0.026139    0.052184
C      -1.141381   -0.803370    0.022851
N      -0.591409   -2.062232   -0.023885
N       0.731697   -2.014486   -0.025365
N       1.089739   -0.756844    0.018609
C      -2.516836   -0.526610    0.030019
N      -3.649604   -0.275405    0.031416
H       0.955010    1.768251   -0.099657
H      -0.728935    1.917310   -0.183895
H      -1.066760   -2.951003   -0.058170
