19

C      -0.017191    1.515283    0.267453
C       0.023126    0.023622   -0.094647
C      -1.341859   -0.583993   -0.178781
O      -2.055498   -0.845785    1.039845
C      -1.882016   -1.923911    0.108358
C      -2.982729   -1.780710   -0.947058
C      -2.426353   -0.342055   -1.275159
C      -3.342865    0.828109   -1.041080
O      -3.567690    1.691526   -1.853585
H       0.994093    1.927581    0.322809
H      -0.572892    2.091461   -0.479368
H      -0.500041    1.664276    1.237614
H       0.529997   -0.115622   -1.057421
H       0.598121   -0.531449    0.654978
H      -1.397935   -2.819593    0.480490
H      -2.875898   -2.455472   -1.798551
H      -4.003588   -1.837432   -0.560484
H      -2.003011   -0.278157   -2.279637
H      -3.807773    0.846870   -0.032116
