16

C       0.158909    1.499038   -0.239289
N       0.191186    0.046021   -0.068572
C       1.471237   -0.664036   -0.207574
C       2.702955    0.039954   -0.466784
N       3.705063    0.579028   -0.679503
C       0.787305   -0.510062    1.127913
C       1.272964    0.385652    2.262197
N       2.574817    0.239007    2.630728
O       0.486647    1.110284    2.838077
H       1.080489    2.012605    0.065098
H      -0.030097    1.714109   -1.293981
H      -0.663947    1.888125    0.362635
H       1.409098   -1.618260   -0.725090
H       0.272016   -1.391214    1.509283
H       3.251759   -0.174184    2.010625
H       2.918767    0.866700    3.342160
