23

C      -0.132711    1.489955    0.050548
C       0.038980   -0.013247    0.018945
C      -0.764385   -0.820904    1.012234
C       0.748270   -0.758299    1.141956
C       1.449023   -1.897472    0.485642
C       1.224184   -1.915597   -0.828901
C       0.426075   -0.712818   -1.314207
C      -0.803481   -1.117660   -2.148346
C       1.345288    0.175610   -2.180320
H       0.769608    2.018217   -0.272947
H      -0.956992    1.812724   -0.597451
H      -0.366367    1.829254    1.064420
H      -1.358093   -0.253125    1.722544
H      -1.196007   -1.772871    0.723268
H       1.188741   -0.247382    1.991909
H       2.017549   -2.637511    1.038245
H       1.569050   -2.679347   -1.518729
H      -1.471019   -1.780162   -1.591555
H      -1.376840   -0.233385   -2.448809
H      -0.499715   -1.639081   -3.062918
H       1.718412   -0.394136   -3.038149
H       0.813141    1.049724   -2.570427
H       2.211558    0.523501   -1.609920
