22

C       0.126678    1.322247   -0.574566
C      -0.134960    0.151601    0.379065
C      -1.454531   -0.540040    0.100082
C      -1.553698   -1.604632   -0.977241
C      -1.682152   -1.970617    0.480045
O      -0.615065   -2.630540    1.118374
C      -0.521049   -3.959263    0.880783
N       0.370040   -4.645412    1.441600
C       0.409965   -6.059776    1.135536
H       1.080386    1.808647   -0.348043
H       0.159558    0.983596   -1.615492
H      -0.660337    2.080926   -0.498825
H       0.677148   -0.578689    0.312045
H      -0.132334    0.511344    1.415619
H      -2.327200    0.099942    0.208923
H      -2.434275   -1.654362   -1.608203
H      -0.627007   -1.889861   -1.464918
H      -2.657905   -2.258196    0.865489
H      -1.272826   -4.345921    0.176173
H       1.388385   -6.317947    0.714234
H       0.300302   -6.639234    2.059432
H      -0.368327   -6.389034    0.427185
