16

C      -0.127025    1.570021   -0.029206
C       0.073145    0.052751   -0.013432
N       0.695871   -0.454761   -1.221690
C       0.090788   -0.670842   -2.458017
C       1.035772   -1.114843   -3.311557
N       2.232542   -1.167273   -2.602263
C       2.054104   -0.756135   -1.288832
O       2.881329   -0.676311   -0.397746
H       0.834595    2.081441   -0.126125
H      -0.766212    1.879055   -0.862480
H      -0.599739    1.898657    0.901624
H       0.736281   -0.233297    0.807065
H      -0.883820   -0.461732    0.129979
H      -0.960657   -0.498655   -2.612754
H       0.966225   -1.398633   -4.346915
H       3.128637   -1.458527   -2.949030
