19

C       0.372869    1.484363    0.024637
C       0.160604   -0.029506   -0.033443
C      -1.319317   -0.445632    0.029421
C      -1.450291   -1.976771   -0.158999
C      -2.830286   -2.453151   -0.115445
N      -3.920999   -2.831314   -0.072501
N      -1.964875   -0.021440    1.261065
C      -2.951070    0.922690    1.295834
O      -3.363693    1.533554    0.335500
H       1.437479    1.727492   -0.036019
H      -0.138375    1.987580   -0.801647
H      -0.015561    1.902630    0.957288
H       0.588460   -0.428856   -0.961274
H       0.704150   -0.517009    0.788324
H      -1.873682    0.059125   -0.766645
H      -1.006682   -2.264012   -1.118235
H      -0.877463   -2.499708    0.617738
H      -1.696747   -0.458580    2.129819
H      -3.334805    1.074214    2.323246
