18

N      -0.063533    1.257937    0.643924
C      -0.004833    0.132229    0.075772
O       1.175293   -0.474514   -0.242598
C       1.174823   -1.724389   -0.966343
C       0.784886   -1.487228   -2.436804
C      -0.773605   -1.502920   -2.417464
C      -1.124654   -1.754890   -0.938357
C       0.043438   -2.593425   -0.423328
O      -1.158481   -0.513454   -0.209741
H       0.879913    1.604433    0.803553
H       2.181300   -2.121637   -0.832102
H       1.204681   -0.546106   -2.797127
H       1.185145   -2.289534   -3.063666
H      -1.221121   -0.568640   -2.761332
H      -1.172310   -2.309932   -3.039040
H      -2.114053   -2.186821   -0.787275
H       0.051177   -3.584433   -0.887058
H       0.057349   -2.700563    0.663209
