19

C      -0.178163    1.521757   -0.005867
C       0.052161    0.024953    0.001889
C      -1.125576   -0.896031    0.392073
O      -0.347564   -1.523726    1.436040
C       0.792185   -0.665096    1.183961
C       2.016103   -1.324956    0.583585
C       1.754524   -2.486431   -0.359312
C       1.888196   -1.096021   -0.902466
O       0.724587   -0.362593   -1.196327
H       0.776488    2.054119   -0.058759
H      -0.774046    1.808322   -0.878239
H      -0.709198    1.843180    0.895066
H      -2.005525   -0.381746    0.797487
H      -1.434255   -1.600600   -0.387836
H       1.030647   -0.054472    2.060429
H       2.963613   -1.248240    1.102000
H       2.576163   -3.172809   -0.533823
H       0.773647   -2.944935   -0.317080
H       2.724713   -0.826203   -1.537961
