15

C       0.063766    1.453336    0.001380
N      -0.087687    0.005879   -0.053610
C       0.562414   -0.689499   -1.040576
N       1.140735   -0.126797   -2.072737
O       1.597143   -1.180233   -2.845562
N       1.307153   -2.378945   -2.267883
C       0.672105   -2.117784   -1.160902
C       0.167760   -3.171888   -0.235104
H       1.105016    1.769222    0.152876
H      -0.282301    1.886276   -0.940296
H      -0.553231    1.841554    0.814198
H      -0.101208   -0.459650    0.840861
H       0.642068   -3.097118    0.750687
H      -0.913788   -3.078336   -0.088296
H       0.381257   -4.161498   -0.642050
