13

C      -0.022773    1.453792    0.009942
N      -0.042136    0.009026    0.000542
C      -1.188863   -0.820421    0.003468
C      -0.722688   -2.073651   -0.007033
O      -1.342875   -3.258971   -0.009657
O       0.644767   -2.085529   -0.016346
C       1.089190   -0.753400   -0.011917
O       2.250262   -0.441406   -0.017381
H       1.022410    1.765664    0.002851
H      -0.526277    1.859771   -0.874223
H      -0.510678    1.848212    0.908003
H      -2.191184   -0.435159    0.012583
H      -0.667831   -3.948337   -0.018263
