21

C       0.017552    1.601706   -0.059903
C       0.116259    0.080771    0.018636
C       0.820572   -0.590539   -1.190449
C       1.527306   -1.774909   -0.578369
C       1.562861   -1.727031    0.756140
C       2.183333   -2.701271    1.705721
C       0.860108   -0.494771    1.232850
C       1.314769    0.286405    2.397726
O       0.157700   -0.548192    2.485780
H       1.009224    2.064452   -0.114540
H      -0.541587    1.906655   -0.950563
H      -0.503932    2.011914    0.811057
H      -0.898921   -0.330791    0.084486
H       0.114495   -0.874221   -1.979367
H       1.540449    0.097993   -1.656795
H       1.980739   -2.557928   -1.177526
H       2.510137   -3.607327    1.189396
H       3.057517   -2.270743    2.210634
H       1.470769   -2.978061    2.489951
H       2.176744   -0.046021    2.975513
H       1.124854    1.357623    2.437897
