19

C       0.033339    1.261319   -0.351104
C       0.055748   -0.192179    0.166795
C       0.686275   -0.268859    1.563183
C      -1.327013   -0.787113    0.128383
N      -2.077686   -0.878051    1.201035
O      -3.268984   -1.454316    0.799648
C      -3.213159   -1.690424   -0.529628
C      -2.010360   -1.296557   -1.025607
N      -1.466716   -1.432557   -2.310776
H       1.049115    1.665759   -0.403511
H      -0.409769    1.339327   -1.350102
H      -0.554831    1.895598    0.319600
H       0.669626   -0.784780   -0.525698
H       0.735817   -1.301370    1.918206
H       1.701154    0.140268    1.541600
H       0.098570    0.301636    2.287212
H      -4.086441   -2.146365   -0.968308
H      -2.161619   -1.658517   -3.010407
H      -0.952766   -0.613034   -2.608640
