23

C      -0.264528    1.521268    0.002899
C       0.102294    0.026675    0.037319
C       0.807712   -0.460836   -1.201138
C       2.074404   -0.888114   -1.214816
C       2.679948   -1.363321   -2.518359
C       2.316981   -0.333725   -3.632500
C       0.922386   -1.025564   -3.658690
C       1.659190   -2.320925   -3.208340
C       0.044109   -0.486697   -2.515698
H       0.630867    2.138672   -0.121793
H      -0.946869    1.752155   -0.821058
H      -0.757255    1.821342    0.933075
H       0.736503   -0.167733    0.909818
H      -0.818624   -0.555852    0.186205
H       2.673521   -0.907519   -0.308078
H       3.717581   -1.684477   -2.414611
H       2.366563    0.727485   -3.374355
H       2.870386   -0.518291   -4.557640
H       0.374261   -1.046065   -4.604076
H       2.100447   -2.844670   -4.061071
H       1.123425   -3.030563   -2.572286
H      -0.858505   -1.106561   -2.406593
H      -0.317423    0.519851   -2.768478
