23

C       0.280175    1.167537    0.438565
C       0.231095   -0.282364   -0.055190
C       0.686192   -0.465005   -1.506746
O      -0.127104    0.281455   -2.399811
C       2.228205   -0.318359   -1.748180
C       2.318939   -1.840970   -2.057064
C       3.073466   -2.655353   -1.022554
O       2.899466   -4.029329   -1.335214
C       0.769150   -1.939482   -1.979414
H       1.286180    1.592852    0.347584
H      -0.410190    1.806940   -0.123102
H      -0.011164    1.234066    1.490828
H       0.855816   -0.909942    0.591969
H      -0.792919   -0.667222    0.028071
H      -0.033900    1.214916   -2.181661
H       2.446231    0.314103   -2.611321
H       2.821189    0.030817   -0.896017
H       2.728005   -2.076904   -3.042534
H       4.139344   -2.371983   -1.036277
H       2.691042   -2.428387   -0.012753
H       3.344967   -4.551617   -0.661939
H       0.378729   -2.690053   -1.287133
H       0.287362   -2.069035   -2.949789
