20

C      -0.053973    1.572912   -0.042820
C       0.106735    0.090214   -0.079972
C      -0.002509   -0.818311   -1.125539
C       0.243353   -2.159068   -0.664382
C       0.219269   -3.414683   -1.482470
C       0.499103   -2.003500    0.678712
C       0.832497   -2.418375    2.104261
C       0.723220   -0.877671    2.432299
N       0.416377   -0.682510    1.007735
H       0.861338    2.082892    0.283581
H      -0.300098    1.944225   -1.040568
H      -0.857672    1.887723    0.634958
H      -0.240107   -0.544709   -2.144846
H       0.956792   -3.389445   -2.293883
H       0.441582   -4.290796   -0.865943
H      -0.759614   -3.581582   -1.948152
H       0.093637   -3.040793    2.617038
H       1.826458   -2.843942    2.269206
H      -0.090687   -0.597874    3.108179
H       1.651365   -0.399623    2.760249
