20

C       0.087285    1.471254   -0.100722
C      -0.007956   -0.024103    0.050067
C      -0.888294   -0.641180    1.121521
C       0.612668   -0.795865    1.192682
N       1.315941   -2.032136    0.836852
C       2.174354   -1.626464   -0.352709
C       0.923260   -1.813988   -1.241124
C       0.510562   -2.833052   -0.158918
O       0.072896   -0.671897   -1.210105
H       1.037517    1.758861   -0.562823
H      -0.722395    1.847114   -0.735915
H       0.012353    1.964902    0.872716
H      -1.336727    0.034339    1.842842
H      -1.519044   -1.481024    0.860427
H       1.134091   -0.243115    1.970239
H       2.625488   -0.634210   -0.282034
H       2.943918   -2.380050   -0.539315
H       1.011134   -2.099776   -2.291723
H       0.987276   -3.808941   -0.287311
H      -0.547617   -2.977251    0.056966
