16

C      -0.028483    1.530656   -0.027782
C      -0.006626    0.022097    0.022049
C      -0.031281   -0.712006   -1.169714
N      -0.015591   -2.041571   -1.250373
C       0.027029   -2.727693   -0.103215
C       0.054840   -2.116124    1.141177
C       0.038035   -0.721137    1.213613
C       0.068290   -0.078403    2.555399
O       0.107136   -0.694573    3.594773
H       0.861217    1.970651    0.434795
H      -0.063478    1.873127   -1.065092
H      -0.901155    1.946838    0.486386
H      -0.066005   -0.178420   -2.118097
H       0.039140   -3.810974   -0.189727
H       0.089274   -2.690945    2.059282
H       0.053045    1.030168    2.557918
