15

O       0.181340    1.284898    0.360654
C       0.036658   -0.056203    0.012063
C      -1.451047   -0.425081   -0.127084
O      -1.647397   -1.805286   -0.455916
C      -0.884259   -2.429734   -1.385189
O      -1.206965   -3.506023   -1.796618
C       0.418857   -1.756691   -1.839837
C       0.662746   -0.357218   -1.334057
O       1.248426    0.503252   -1.951631
H       0.695434    1.685701   -0.359886
H       0.484006   -0.719481    0.770985
H      -1.967164   -0.267231    0.820571
H      -1.918606    0.212294   -0.887234
H       1.223861   -2.403475   -1.466156
H       0.480479   -1.789237   -2.929821
