19

O       0.085171   -0.128010    0.005001
C       0.044623    1.076487   -0.021932
C       1.251441    1.977824   -0.016569
C       1.259499    3.022974   -1.179707
C       1.442057    4.389879   -0.431891
C       2.352380    3.954988    0.738462
C       1.342556    2.907375    1.263322
C       0.079547    3.754333    1.318507
C       0.143001    4.638622    0.317055
H      -0.930274    1.615645   -0.052924
H       2.135271    1.336051   -0.052937
H       2.088871    2.825692   -1.864187
H       0.336953    3.006232   -1.767353
H       1.795310    5.199679   -1.070448
H       3.306113    3.522281    0.418651
H       2.530344    4.757690    1.458182
H       1.603865    2.362946    2.170481
H      -0.746589    3.586866    1.997958
H      -0.624254    5.336220    0.004872
