17

O      -0.106676    1.398428   -0.058136
C      -0.031031    0.001885   -0.003961
C       1.052870   -0.579943   -0.756713
C       1.979927   -1.044953   -1.366219
C      -0.468707   -0.744938    1.255167
C      -1.219551    0.055633    2.303544
O      -2.311344    0.687612    1.651509
C      -2.580428    0.061354    0.403820
C      -1.347319   -0.741551    0.027238
H       0.702549    1.755137    0.324477
H       2.790441   -1.454796   -1.916495
H       0.097119   -1.616458    1.561162
H      -1.565746   -0.624975    3.097682
H      -0.615842    0.842069    2.772427
H      -3.442343   -0.620237    0.478720
H      -2.823731    0.849762   -0.315789
H      -1.462422   -1.610979   -0.607881
