16

C       0.033109    1.448424   -0.084336
C       0.265918   -0.055150   -0.147403
O       1.017342   -0.635439    0.611201
N      -0.446857   -0.706632   -1.122282
C      -0.461696   -2.135194   -1.223099
C      -0.604706   -2.741020   -2.593506
C       0.709302   -2.833360   -1.858300
H      -0.330784    1.868702   -1.026110
H      -0.701277    1.667167    0.698111
H       0.969078    1.934893    0.194153
H      -1.154063   -0.192607   -1.623101
H      -0.942348   -2.648729   -0.393826
H      -1.215248   -3.630995   -2.693971
H      -0.659908   -2.061140   -3.437236
H       1.524531   -2.208726   -2.201925
H       1.010911   -3.787909   -1.443678
