16

N      -0.481440    1.009838   -0.608118
C      -0.413231   -0.237555   -0.439993
O      -0.720880   -0.765296    0.768985
C      -0.818046   -2.182336    0.842232
C      -2.214342   -2.632840    0.485657
N      -2.493657   -2.787404   -0.941025
C      -2.491567   -3.989657   -0.084041
C      -1.437592   -4.949706   -0.316661
N      -0.598508   -5.728594   -0.476467
H      -0.185408    1.247564   -1.552634
H      -0.108858   -0.988797   -1.179118
H      -0.087401   -2.664930    0.182662
H      -0.582956   -2.450539    1.875763
H      -2.998017   -2.221400    1.118449
H      -3.449827   -2.525561   -1.165541
H      -3.443476   -4.443973    0.176644
