13

C      -0.181827    1.384379   -0.145790
C       0.152138   -0.068059   -0.020172
N       1.309226   -0.545063   -0.018070
O      -1.075167   -0.777231    0.093613
C      -1.139890   -2.091674    0.222954
N      -0.174658   -2.969016    0.268130
O      -0.829632   -4.157058    0.409004
N      -2.193318   -3.919912    0.441357
N      -2.386814   -2.684036    0.330631
H       0.740562    1.954823   -0.239668
H      -0.815707    1.554270   -1.021306
H      -0.740826    1.722779    0.731905
H       1.353813   -1.557755    0.076833
