21

C      -0.019473    1.570083    0.043877
C      -0.017214    0.030048    0.061695
C       0.786146   -0.503986    1.257497
O       2.125616   -0.056789    1.115665
C      -1.407382   -0.544008    0.048120
C      -1.959854   -1.329475   -0.873448
C      -3.374004   -1.666122   -0.502765
O      -3.599623   -1.004973    0.740046
C      -2.433267   -0.290510    1.131765
H       1.006421    1.943775    0.040097
H      -0.537117    1.948757   -0.842062
H      -0.523202    1.976252    0.927970
H       0.500763   -0.321995   -0.838702
H       0.343763   -0.137457    2.198096
H       0.731355   -1.603379    1.270898
H       2.623901   -0.345342    1.885463
H      -1.483050   -1.688033   -1.777750
H      -4.102524   -1.314906   -1.251664
H      -3.535126   -2.749849   -0.383316
H      -2.097892   -0.644206    2.120349
H      -2.670861    0.779642    1.240969
