14

O       0.097925    1.363445    0.095638
C       0.069053    0.008993    0.040622
C       0.072821   -0.691098   -1.173004
N       0.045110   -2.014912   -1.259054
C       0.011693   -2.717732   -0.118361
C       0.005110   -2.119543    1.132039
C       0.034108   -0.725828    1.233434
C       0.027465   -0.070982    2.565812
O      -0.002452   -0.687158    3.606631
H       0.119838    1.721277   -0.799188
H       0.099817   -0.135545   -2.111677
H      -0.010439   -3.798568   -0.219644
H      -0.022103   -2.703319    2.045064
H       0.051945    1.034861    2.551974
