21

O      -0.077087    1.465016   -0.033719
C       0.027546    0.049400    0.024252
C      -1.378381   -0.531185   -0.005978
C      -2.167031   -0.221686   -1.298424
C      -3.215281   -1.355024   -1.416465
C      -2.565307   -2.551485   -0.738668
C      -1.128857   -2.880147   -1.110116
C      -1.435579   -2.052353    0.117306
O      -1.236030   -2.611433    1.383326
H       0.810643    1.834379   -0.031265
H       0.608653   -0.342677   -0.826839
H       0.539513   -0.269532    0.948152
H      -1.921045   -0.129166    0.859806
H      -2.616760    0.772398   -1.277943
H      -1.487682   -0.238271   -2.158445
H      -4.129547   -1.088587   -0.872735
H      -3.503084   -1.546016   -2.455971
H      -3.183043   -3.368258   -0.383023
H      -0.814985   -3.900273   -0.917114
H      -0.676517   -2.427775   -1.987020
H      -0.287710   -2.680545    1.534904
