17

N       0.005932    1.374502    0.128972
C      -0.056343    0.001738   -0.001352
N      -1.171444   -0.603930   -0.016105
C      -1.211441   -2.057795   -0.037276
C       0.101118   -2.725082    0.364984
N       1.182210   -2.085946   -0.385973
C       1.323930   -0.691462    0.012600
C       2.267476   -0.003680   -0.879351
N       3.011295    0.567045   -1.555261
H       0.766080    1.843452   -0.342930
H      -0.891623    1.823372    0.009983
H      -2.016670   -2.389224    0.628951
H      -1.491094   -2.377572   -1.049838
H       0.242073   -2.643791    1.458771
H       0.083418   -3.788479    0.110055
H       2.062039   -2.569107   -0.246399
H       1.714447   -0.563292    1.041400
