17

N       0.062832   -1.187077   -0.179978
C      -0.010962   -0.033810   -0.093383
C      -0.045071    1.380463    0.020312
C      -1.136657    2.155725   -0.028834
C      -0.757997    3.605099    0.089050
C      -1.039470    4.309780    1.444296
C       0.419421    3.948090    1.815904
N       0.705290    3.585807    0.398613
C       1.216802    2.232865    0.171164
H      -2.151121    1.802587   -0.168199
H      -1.041891    4.167541   -0.810102
H      -1.213935    5.381152    1.334213
H      -1.825005    3.878044    2.065671
H       1.049458    4.756985    2.196702
H       0.488199    3.095334    2.504556
H       1.847118    1.908304    1.007333
H       1.830673    2.173203   -0.737442
