16

O      -0.021698    0.039725    0.357077
C       0.001181    1.193320    0.038104
O      -1.115572    1.861129   -0.355020
C      -0.876429    3.244706   -0.675665
C       0.627249    3.502750   -0.480551
C       1.098180    4.102322    0.863878
N       0.400810    3.334885    1.920371
C       1.630500    2.785919    1.305566
C       1.195579    2.131204   -0.024728
H      -1.198958    3.402313   -1.709035
H      -1.492074    3.852894   -0.008514
H       1.112588    3.944377   -1.350388
H       1.464492    5.104673    1.046002
H       0.661060    3.735571    2.820055
H       2.493618    2.531498    1.906075
H       2.013337    1.708683   -0.607292
