17

C      -0.124158    1.619513    0.003663
N      -0.247530    0.213621   -0.374371
C      -0.157950   -0.751235    0.718872
C      -1.464850   -0.458670    0.067899
C       1.316140    2.036159    0.011610
N       1.808283    2.689364    1.037838
O       3.142853    2.935794    0.726493
C       3.407260    2.411300   -0.479738
C       2.301491    1.823574   -0.997132
H      -0.672234    2.211566   -0.739999
H      -0.559104    1.846032    0.990739
H       0.377739   -1.668574    0.494008
H      -0.003652   -0.366422    1.725290
H      -2.187466    0.119222    0.641859
H      -1.900458   -1.158118   -0.639681
H       4.419737    2.534747   -0.832231
H       2.186215    1.307644   -1.934657
