14

N       0.111590    1.366106    0.172317
C      -0.068962    0.010786    0.034022
C      -1.135079   -0.821485    0.231614
C      -0.588150   -2.105232   -0.027545
C      -1.282726   -3.427830    0.070589
O      -2.584490   -3.287030   -0.480667
N       0.680641   -2.062864   -0.356812
O       1.018883   -0.691970   -0.309125
H       0.892098    1.732887   -0.354108
H      -0.726836    1.915609    0.059952
H      -2.146023   -0.571238    0.500429
H      -0.682564   -4.181600   -0.457133
H      -1.334906   -3.725889    1.130218
H      -3.052641   -4.115857   -0.343356
