18

C      -0.033979    1.511626    0.132570
C       0.030144   -0.014032   -0.007459
C       0.520610   -0.390113   -1.411291
N       0.818305   -1.769267   -1.720763
C       0.826179   -2.769585   -0.968390
O       0.544140   -2.974516    0.373903
C       0.556685   -2.052213    1.399512
O       0.245232   -2.436461    2.488479
C       0.947937   -0.634809    1.066761
H       0.965020    1.955606    0.051978
H      -0.659746    1.952213   -0.650268
H      -0.452996    1.801473    1.100518
H      -0.983780   -0.411413    0.131491
H      -0.207992   -0.050496   -2.158299
H       1.437528    0.178790   -1.626175
H       1.061267   -3.749112   -1.381632
H       1.990745   -0.610796    0.724764
H       0.891815   -0.082075    2.006177
