19

C      -0.011770    1.504048    0.003639
C      -0.020756    0.006179   -0.001493
C      -0.092202   -0.849579   -1.069685
C       0.201981   -1.255885   -2.506805
C       0.387309   -2.703720   -1.917888
N      -0.057963   -2.155172   -0.620232
C       0.072578   -2.183769    0.739680
N       0.230777   -3.392277    1.441793
C       0.035707   -0.861962    1.153227
H       0.845979    1.901142    0.559503
H       0.040487    1.900571   -1.014883
H      -0.913062    1.922195    0.469614
H      -0.618821   -1.157836   -3.223465
H       1.108094   -0.833358   -2.948556
H      -0.258813   -3.489668   -2.318833
H       1.424668   -3.049942   -1.905445
H      -0.545788   -4.029653    1.294144
H       0.311381   -3.218657    2.436022
H      -0.004608   -0.538728    2.184646
