12

N      -0.050952    1.283276    0.344541
C      -0.075022    0.076746   -0.031325
O       1.118214   -0.554104   -0.432464
C       1.224157   -1.844869   -0.856290
O       2.279958   -2.308063   -1.183060
N       0.036380   -2.551314   -0.877952
C      -1.176963   -2.013058   -0.502564
C      -1.267466   -0.742683   -0.086919
H       0.896779    1.659120    0.302022
H       0.114428   -3.504852   -1.191975
H      -2.025298   -2.682252   -0.569641
H      -2.202923   -0.295796    0.212537
