20

C      -0.174465    1.546333   -0.016359
C       0.063826    0.053731   -0.111892
C       0.751712   -0.689484   -1.195194
C       1.972749    0.028217   -1.770298
O       1.823706    1.132705   -2.630108
C       2.442970    0.182680   -0.315054
C       3.835170    0.034084    0.199400
C       3.091734    1.342612    0.372300
N       1.326610   -0.635744    0.230782
H       0.662896    2.145660   -0.376654
H      -1.070894    1.817830   -0.584856
H      -0.348143    1.832680    1.026443
H      -0.766498   -0.515493    0.305092
H       0.342032   -1.610680   -1.598154
H       2.618790   -0.670643   -2.308820
H       1.112749    1.686479   -2.295307
H       3.969299   -0.586802    1.078625
H       4.645475   -0.009631   -0.521536
H       3.384045    2.187988   -0.243274
H       2.747753    1.600824    1.368318
