15

O      -0.057022   -0.030156    0.270261
C      -0.074880    1.168554    0.123498
C      -1.359873    1.958244   -0.118360
N      -1.345449    3.394402    0.136902
C      -0.814922    3.857732    1.403135
C      -0.044865    4.069656    0.130229
C       1.221800    3.299360   -0.043314
O       2.292026    3.816922   -0.261593
N       1.095801    1.916152    0.092132
H      -1.621933    1.802213   -1.172374
H      -2.149514    1.492969    0.476494
H      -1.332058    4.702262    1.848379
H      -0.418778    3.132394    2.111637
H      -0.013654    5.054265   -0.323799
H       1.961922    1.389563    0.098428
