16

O       0.055578    0.085890    0.569475
C      -0.005136    1.199950    0.115600
C      -1.354105    1.816263   -0.277653
C      -1.294977    3.113101   -1.057959
N      -0.602314    4.228531   -0.423377
C      -0.003477    3.618434   -1.635907
C       1.229873    2.806168   -1.408363
O       2.108932    2.723137   -2.233847
C       1.247910    2.053440   -0.087282
H      -1.891952    1.052148   -0.848636
H      -1.922823    1.966584    0.648331
H      -2.185938    3.337589   -1.639844
H      -1.033188    5.115328   -0.669508
H      -0.026003    4.163681   -2.574256
H       1.238027    2.804069    0.714526
H       2.138187    1.430724   -0.005896
