20

C       2.993458   -0.640737    0.354151
N       1.602459   -1.071972    0.375994
C       1.218877   -2.120119    1.308551
C       0.743588   -0.716960    1.501921
C       1.225476    0.097438    2.687512
O       1.272876    1.487876    2.337827
C       0.467951    2.256844    3.227802
C      -0.147736    1.255178    4.163479
C       0.288762    0.037351    3.867049
H       3.537130   -0.794205    1.299386
H       3.518185   -1.202250   -0.425397
H       3.034735    0.423285    0.105015
H       0.549390   -2.888478    0.930404
H       1.977099   -2.483389    2.004056
H      -0.273043   -0.462660    1.204110
H       2.236851   -0.231459    2.972976
H       1.091752    2.993962    3.758926
H      -0.284304    2.823434    2.657493
H      -0.832095    1.527543    4.956943
H       0.033582   -0.889827    4.363442
