22

C      -0.079592    1.551884    0.362450
C       0.075846    0.049817    0.260834
N       1.306433   -0.612353   -0.191365
C       2.477823    0.175103   -0.541426
C       0.903894   -0.752448    1.210085
C       1.693092   -0.163550    2.387025
C       1.458295   -1.209100    3.492402
O       1.279268   -2.442497    2.814964
C       0.481239   -2.150343    1.677981
H       0.784010    2.044026    0.814244
H      -0.237740    1.993380   -0.627724
H      -0.956073    1.794682    0.973103
H      -0.817794   -0.437900   -0.133927
H       2.665780    1.057625    0.087572
H       3.362359   -0.467931   -0.485938
H       2.378180    0.514573   -1.577480
H       2.758632   -0.103646    2.143286
H       1.362242    0.834036    2.685637
H       2.299071   -1.319099    4.181632
H       0.559248   -0.953909    4.078750
H      -0.589125   -2.159939    1.947113
H       0.661776   -2.909709    0.914080
