17

O       0.177277    0.222009   -0.801709
C      -0.015805    1.205972   -0.164068
C      -1.201273    2.029053    0.334023
C      -0.113446    2.925146    0.950845
C       0.137172    4.422731    0.627211
C       0.298178    4.691573    2.131171
C      -0.947262    4.270368    2.850816
C       0.042522    3.211474    2.434889
O       0.921541    2.033407    0.402958
H      -1.804960    2.472459   -0.460038
H      -1.848789    1.507329    1.041285
H       1.066296    4.525081    0.063305
H      -0.662508    4.966387    0.113614
H       1.027952    5.356431    2.574095
H      -0.971379    4.473148    3.916519
H      -1.917935    4.345140    2.364636
H       0.524024    2.547278    3.141426
