22

C       0.039957    1.428656   -0.298082
C       0.021232   -0.011075    0.230261
C      -1.356345   -0.640302    0.144479
C      -1.964033   -1.252352   -1.096507
C      -0.923009   -2.037343   -1.903417
C      -0.622752   -2.906150   -0.641320
C      -1.678801   -2.112805    0.149787
C      -2.623521   -2.738205    1.137216
H       1.037943    1.871042   -0.217005
H      -0.261227    1.464344   -1.350351
H      -0.653036    2.065136    0.263630
H       0.753106   -0.608877   -0.322784
H       0.354692   -0.021156    1.276492
H      -2.102585   -0.077700    0.706833
H      -2.919621   -0.913791   -1.482543
H      -1.369747   -2.624977   -2.708447
H      -0.091086   -1.462102   -2.323377
H      -0.917422   -3.949215   -0.784478
H       0.399657   -2.892059   -0.249581
H      -2.105232   -3.021963    2.062136
H      -3.427223   -2.046427    1.411258
H      -3.086889   -3.644857    0.729809
