25

C      -0.103651    1.661304    0.107798
C      -0.145534    0.143487   -0.122166
C       0.643068   -0.404221   -1.354816
C      -0.005427    0.083478   -2.662610
C       2.048199    0.196779   -1.254994
O       2.963701   -0.278387   -0.632116
C       0.754550   -1.959258   -1.265463
C      -0.593581   -2.674648   -1.088561
C       1.513067   -2.570007   -2.456506
H       0.909196    2.020292    0.315878
H      -0.489482    2.222145   -0.748870
H      -0.722993    1.922320    0.971300
H       0.240860   -0.359150    0.772257
H      -1.190975   -0.164282   -0.229780
H      -0.047028    1.176324   -2.702046
H       0.551624   -0.249786   -3.542771
H      -1.030703   -0.285848   -2.755481
H       2.179460    1.164335   -1.794246
H       1.358185   -2.150514   -0.370789
H      -0.433076   -3.756784   -1.042242
H      -1.108094   -2.384425   -0.169289
H      -1.270616   -2.485207   -1.929368
H       2.476814   -2.081287   -2.622778
H       1.712097   -3.629782   -2.267874
H       0.932697   -2.511070   -3.383550
