18

O       0.278486    1.318227    0.163220
C       0.117626   -0.023547   -0.001814
C      -0.039084   -0.821038   -1.114754
C      -0.147041   -2.162020   -0.612680
C      -0.044485   -2.123731    0.752537
N       0.118106   -0.801799    1.119621
C      -0.084917   -0.350618   -2.516969
C       0.293123   -1.254824   -3.669400
C      -1.142884   -0.840530   -3.488518
H       0.032080    1.754169   -0.658013
H      -0.279011   -3.055026   -1.205033
H      -0.065780   -2.905378    1.493099
H       0.212242   -0.442985    2.053238
H       0.208760    0.689507   -2.648087
H       0.854091   -0.827868   -4.493650
H       0.566066   -2.276919   -3.430582
H      -1.843338   -1.580342   -3.116447
H      -1.569309   -0.132905   -4.191790
