21

C      -0.437673    1.120332    0.489250
O      -0.275467   -0.255560    0.236126
C       0.443356   -0.515461   -0.949429
C       0.648310   -2.036069   -1.043916
C       1.197554   -2.395834   -2.348463
C       1.705433   -2.675554   -3.402932
C       1.578330   -2.541147    0.097948
C       1.584776   -4.064063    0.217382
O       2.888923   -2.016846   -0.053542
H       0.531250    1.631182    0.599458
H      -0.999831    1.619235   -0.315817
H      -0.997579    1.216739    1.422559
H      -0.109997   -0.150753   -1.828780
H       1.425727   -0.020511   -0.932345
H      -0.335545   -2.506594   -0.919802
H       2.121327   -2.929697   -4.346704
H       1.199204   -2.098786    1.023244
H       1.918435   -4.528462   -0.717272
H       2.264919   -4.369530    1.016686
H       0.584590   -4.446528    0.447119
H       3.222714   -2.329453   -0.904272
