14

C      -0.106729    1.467331    0.252690
C      -0.022025   -0.015736    0.113228
N      -0.178734   -0.609245   -1.045504
O      -0.034776   -1.977205   -0.811038
C       0.218619   -2.178630    0.488786
C       0.233158   -0.982281    1.131846
O       0.480919   -0.691235    2.447525
C      -0.294983   -1.304753    3.393822
O      -0.097528   -1.161646    4.556430
H       0.833021    1.874384    0.638419
H      -0.319072    1.920372   -0.716874
H      -0.896303    1.748230    0.956769
H       0.374846   -3.197761    0.804607
H      -1.090765   -1.919594    2.936566
