21

C      -0.396618    1.397436    0.010386
C       0.114552   -0.028407   -0.051828
O       1.367110   -0.122948   -0.776912
C       2.016986   -0.773212    0.330035
C       0.755105   -0.670236    1.206826
C       0.848924    0.011024    2.610402
C       0.290286   -1.266680    3.249317
C      -1.051350   -1.587522    2.658481
C       0.187722   -1.923326    1.871148
H       0.327473    2.054893    0.500909
H      -0.568404    1.774835   -1.002790
H      -1.344162    1.449096    0.557848
H      -0.643184   -0.681671   -0.509909
H       2.327844   -1.797915    0.082396
H       2.894260   -0.213272    0.680981
H       1.887058    0.217556    2.884605
H       0.260582    0.921676    2.765639
H       0.622787   -1.698388    4.185016
H      -1.563399   -2.439899    3.093665
H      -1.717399   -0.790678    2.333873
H       0.417160   -2.940205    1.572472
