14

O       1.180621    1.118377   -0.072907
C       0.506215   -0.042694   -0.056866
N       0.523692   -0.881984   -1.061974
O      -0.288535   -1.943263   -0.652849
C      -0.751323   -1.682759    0.579292
C      -0.294093   -0.490114    1.035906
C      -0.533630    0.221033    2.337910
C      -1.407147   -0.514667    3.245995
C      -2.127343   -1.130229    3.984492
H       1.639457    1.183327   -0.921259
H      -1.396542   -2.428430    1.016364
H       0.427926    0.415681    2.831953
H      -0.962184    1.213019    2.140702
H      -2.762961   -1.663033    4.647708
