18

O       0.229992    1.399089   -0.245329
C       0.039132    0.012576   -0.020474
C       0.616601   -0.512082    1.325680
C      -0.615683   -0.561136    2.253977
C      -1.035500    0.842896    2.652940
C      -2.028326    1.263234    1.867636
C      -2.436267    0.166532    0.942964
C      -1.419662   -0.467259    0.037688
N      -1.721950   -1.063901    1.359197
H      -0.222512    1.867729    0.464062
H       0.539624   -0.467669   -0.865302
H       1.011753   -1.524972    1.194291
H       1.426434    0.127064    1.687794
H      -0.482663   -1.235585    3.104346
H      -0.510872    1.427543    3.399898
H      -2.503814    2.236469    1.883762
H      -3.488469    0.056910    0.689490
H      -1.793930   -1.028403   -0.814890
