19

C       0.084103    1.421890   -0.416343
N       0.040088    0.004905   -0.062827
C      -1.119755   -0.428704    0.825864
C      -0.782625   -1.920418    0.941206
C       0.534303   -1.900426    1.167948
C       0.851839   -0.402513    1.163609
C      -0.319652    0.118381    2.042335
C      -0.515694    1.331330    2.855397
N      -0.507623   -0.022034    3.466608
H       1.055044    1.631350   -0.878025
H      -0.684663    1.613556   -1.172837
H      -0.062788    2.133873    0.408960
H      -2.128095   -0.109712    0.559785
H      -1.470131   -2.747885    0.848563
H       1.234827   -2.707406    1.321597
H       1.881093   -0.055747    1.246393
H       0.325383    1.960115    3.136565
H      -1.461547    1.861977    2.767132
H      -1.451922   -0.329856    3.685143
