17

O      -0.225392    0.076582    0.408174
C      -0.067993    1.197432    0.057014
O      -1.051746    2.100363   -0.375608
C      -0.003632    2.991802   -0.918208
C       0.333146    4.471004   -0.628978
C       1.660989    4.195165    0.155215
C       1.107288    3.203287    1.202693
C       1.013639    2.277386   -0.050257
C       2.347872    2.919747   -0.508759
H       0.073182    2.764912   -1.984421
H       0.458466    5.034299   -1.556906
H      -0.387580    4.999856   -0.000756
H       2.266114    5.056411    0.439747
H       1.857164    2.834338    1.904978
H       0.181677    3.459202    1.722927
H       2.554772    2.922078   -1.581372
H       3.232764    2.619557    0.054187
