15

O      -0.169305    1.441475   -0.094030
C      -0.089708    0.045246   -0.051866
C      -1.456745   -0.596776   -0.019639
O      -2.110798   -0.810766   -1.262230
C      -1.599365   -1.963334   -0.557898
C      -0.419202   -2.619157   -1.179707
C       0.677714   -1.925349   -1.511957
C       0.766557   -0.485017   -1.212047
O       1.505853    0.283054   -1.796166
H       0.511402    1.712043   -0.731644
H       0.433268   -0.289477    0.867459
H      -2.106893   -0.270851    0.791271
H      -2.370225   -2.616158   -0.156058
H      -0.493641   -3.679522   -1.403148
H       1.506428   -2.368559   -2.053599
