22

C      -0.063517    1.378552   -0.182732
O      -0.107982    0.089805    0.385903
C      -1.322681   -0.575958    0.154974
C      -1.481165   -1.276774   -1.227359
N      -1.206790   -2.579991   -0.586427
C      -2.026634   -3.710081   -0.956396
C      -1.329195   -1.981798    0.745643
C      -0.666294   -2.444179    1.998801
C      -2.181462   -2.458813    1.890562
H       0.901245    1.817184    0.082907
H      -0.148029    1.352315   -1.279684
H      -0.868000    2.022711    0.207346
H      -2.168160    0.064880    0.443756
H      -2.500847   -1.186940   -1.632397
H      -0.758245   -0.995293   -2.000687
H      -1.831764   -3.972578   -2.001661
H      -1.765707   -4.581750   -0.346398
H      -3.112317   -3.526923   -0.846261
H      -0.151138   -3.398929    1.967828
H      -0.191841   -1.692502    2.619749
H      -2.753935   -1.725635    2.451036
H      -2.666859   -3.424934    1.799296
