14

C       0.076175    1.446002   -0.153857
O       0.034679    0.016559   -0.059230
C       0.593644   -0.681104   -1.036526
C       0.693748   -2.038446   -1.195950
C       1.389656   -2.220764   -2.420204
C       1.664411   -0.978345   -2.921996
O       1.167103   -0.015833   -2.056106
C       2.318505   -0.534638   -4.082154
N       2.861915   -0.183178   -5.045297
H       1.108972    1.805246   -0.173012
H      -0.444368    1.792137   -1.051275
H      -0.431528    1.809891    0.738642
H       0.316792   -2.788081   -0.521778
H       1.660249   -3.155617   -2.885107
