22

C       0.096032    1.562084   -0.148040
C       0.113669    0.035171   -0.031442
C      -1.290783   -0.571702   -0.026130
O      -1.994898   -0.187949   -1.232101
C      -2.031852   -1.219079   -2.130862
N      -2.555622   -1.150810   -3.277656
C      -1.364903   -2.432575   -1.525947
C      -1.372603   -2.119310   -0.022253
C      -0.323469   -2.854107    0.808070
H       1.112525    1.965819   -0.160873
H      -0.409765    1.875074   -1.064700
H      -0.433335    2.015753    0.697378
H       0.695260   -0.394412   -0.856832
H       0.619200   -0.260319    0.895399
H      -1.861025   -0.142399    0.805451
H      -2.928967   -0.213856   -3.442002
H      -1.890311   -3.347850   -1.800699
H      -0.340394   -2.514367   -1.909450
H      -2.365577   -2.377314    0.366347
H       0.689555   -2.668476    0.438094
H      -0.359777   -2.552148    1.860274
H      -0.496366   -3.934156    0.770139
