20

C      -0.001721    1.315144   -0.132593
O      -0.067275   -0.028262    0.293657
C      -1.343573   -0.616420    0.136735
C      -1.597517   -1.159658   -1.298497
C      -1.016975   -2.528616   -0.846724
C      -1.258336   -2.087437    0.626526
N      -0.278302   -2.366361    1.638999
C      -0.507301   -3.187750    2.697467
O      -1.517007   -3.836627    2.876713
H       1.016079    1.665493    0.054215
H      -0.220426    1.420314   -1.204726
H      -0.706855    1.947428    0.427884
H      -2.113020    0.027263    0.585720
H      -2.664904   -1.208700   -1.529728
H      -1.084341   -0.639568   -2.109751
H      -1.519911   -3.437464   -1.181892
H       0.050336   -2.607865   -1.066046
H      -2.222113   -2.445176    0.991513
H       0.560914   -1.807048    1.619195
H       0.354553   -3.207886    3.394094
