18

C      -0.019958    1.467421    0.133847
C      -0.480636    0.114068   -0.375763
O      -0.852098   -0.070027   -1.520764
N      -0.438259   -0.881882    0.574240
C      -0.763576   -2.226341    0.403874
N      -0.465876   -3.096996    1.296129
C      -1.013034   -4.366069    0.785861
C      -1.371176   -4.102439   -0.705253
N      -1.463622   -2.639635   -0.706955
H      -0.119964    2.195708   -0.669640
H      -0.619045    1.786049    0.992827
H       1.026439    1.424281    0.454208
H      -0.043324   -0.681653    1.480902
H      -0.290963   -5.178709    0.905435
H      -1.907896   -4.638884    1.362059
H      -0.578984   -4.455414   -1.381001
H      -2.313682   -4.564039   -1.010989
H      -1.369931   -2.086795   -1.548073
