16

C       0.006193    1.477509    0.009199
O       1.240691    0.720229   -0.007447
C       0.039392    0.024884    0.001871
C      -0.534981   -0.978412    1.015849
N      -1.671218   -1.077514    0.014590
C      -0.556315   -0.968679   -1.009381
C       0.280344   -2.248877   -0.744717
O       1.503046   -2.042122   -0.023497
C       0.295810   -2.255913    0.721335
H      -0.195929    2.013259    0.934708
H      -0.215334    2.022103   -0.906657
H      -0.784980   -0.730454    2.046304
H      -2.080736   -2.013972    0.014402
H      -0.827940   -0.710852   -2.031910
H       0.233688   -3.123334   -1.385485
H       0.262588   -3.136484    1.354525
