20

C      -0.020870    1.279628    0.272153
O      -0.110500   -0.150205    0.223529
C      -1.335998   -0.642376   -0.041279
O      -2.309870    0.046746   -0.217093
C      -1.314301   -2.161681   -0.135941
N      -2.652538   -2.661743    0.152905
C      -0.722440   -2.547985   -1.519287
C      -0.431120   -4.036608   -1.674768
O      -1.661472   -4.756222   -1.704706
H       1.022547    1.504552    0.493212
H      -0.313129    1.718232   -0.685418
H      -0.672415    1.678652    1.053421
H      -0.612264   -2.521657    0.628937
H      -3.326558   -2.018321   -0.252531
H      -2.770197   -3.564657   -0.294259
H      -1.413868   -2.232295   -2.309870
H       0.220512   -2.008772   -1.667640
H       0.131941   -4.200640   -2.606257
H       0.203191   -4.377035   -0.840950
H      -1.464462   -5.697282   -1.689927
