14

O      -0.065179   -0.048026   -0.324659
C      -0.059222    1.152061   -0.126852
N      -1.119323    2.037548   -0.056123
C      -0.677096    3.336956    0.182158
C       0.666827    3.298336    0.262057
N       1.056472    1.969796    0.075384
C       2.389706    1.422794    0.059169
C       3.116862    1.645651    1.316655
N       3.698857    1.845285    2.293911
H      -2.071092    1.734887   -0.163034
H      -1.356631    4.165505    0.276941
H       1.380827    4.080989    0.451093
H       2.271516    0.347778   -0.117219
H       2.984084    1.837400   -0.764499
