22

C       0.123190    1.541229    0.170303
C      -0.029547    0.022142    0.279584
C      -1.358083   -0.477382   -0.288035
N      -1.443612   -1.933485   -0.211534
C      -2.014340   -2.502895    1.013869
C      -2.751745   -2.541997   -0.268921
C      -4.104006   -1.921659   -0.631806
O      -4.426531   -3.072341   -1.440199
C      -3.149141   -3.699386   -1.177482
H       1.080148    1.872846    0.583872
H       0.080722    1.870933   -0.873723
H      -0.672078    2.063430    0.714030
H       0.786083   -0.482327   -0.250413
H       0.047711   -0.286081    1.329828
H      -2.194733    0.016503    0.239976
H      -1.438378   -0.192662   -1.344861
H      -1.522418   -3.391066    1.402718
H      -2.381321   -1.813396    1.775129
H      -4.816027   -1.783216    0.191440
H      -4.059670   -0.998713   -1.225697
H      -2.538383   -3.800477   -2.083486
H      -3.263316   -4.680826   -0.700614
