19

C      -0.171658    1.554381    0.015387
C      -0.015184    0.027485    0.026125
C       0.658475   -0.470498   -1.257168
O       0.978870   -1.856695   -1.176631
C       1.910006   -2.167385   -0.175796
C       3.360819   -1.951771   -0.626037
O       3.687695   -1.410744   -1.647048
C       1.676976   -1.431655    1.124531
C       0.785167   -0.447662    1.213225
H       0.803922    2.049706   -0.036177
H      -0.763382    1.882534   -0.845350
H      -0.677284    1.903093    0.921504
H      -1.018775   -0.419256    0.085013
H      -0.008663   -0.372761   -2.117783
H       1.563922    0.116623   -1.459521
H       1.813390   -3.249898    0.009225
H       4.114617   -2.345153    0.097022
H       2.265246   -1.747165    1.981379
H       0.614050    0.048005    2.166477
