13

C      -0.012907    1.383876    0.013770
O       0.017018   -0.048598   -0.024004
C       0.616497   -0.581277   -1.074901
N       1.166143    0.110565   -2.050400
O       1.654524   -0.889312   -2.899834
C       1.334392   -2.064033   -2.326188
N       0.694620   -1.942373   -1.198037
C       1.717640   -3.250544   -2.987950
C       2.049093   -4.253556   -3.560435
H       1.003114    1.789159    0.024030
H      -0.546661    1.779964   -0.855071
H      -0.536175    1.642767    0.933531
H       2.339700   -5.144369   -4.062308
