21

C      -0.045972    1.662727    0.152400
C      -0.017445    0.139476    0.022319
C      -1.419218   -0.422029   -0.248378
C      -2.013809   -0.027582   -1.604971
O      -3.299215   -0.591795   -1.811383
C       1.162980   -0.565479   -0.741136
C       2.159873   -0.180629    0.376649
C       0.854748   -0.712384    1.013843
O       0.879189   -1.808837    0.015854
H       0.905288    2.098827    0.459195
H      -0.326029    2.130433   -0.796992
H      -0.798025    1.960055    0.891588
H      -1.371526   -1.513289   -0.197916
H      -2.104455   -0.084152    0.539062
H      -2.162145    1.054586   -1.673695
H      -1.320299   -0.310395   -2.414383
H      -3.207972   -1.548737   -1.757311
H       1.335574   -0.664833   -1.814297
H       3.002898   -0.865430    0.467207
H       2.452374    0.859690    0.513769
H       0.649666   -0.987328    2.050184
