12

O      -0.009839    0.000998    0.120430
C      -0.029502    1.197511    0.051237
C      -1.252674    2.106347    0.009962
C      -0.696733    3.546153    0.056344
N       0.747617    3.374512   -0.037296
C       1.226098    2.097120   -0.016240
O       2.378875    1.736648   -0.044966
H      -1.805695    1.909592   -0.913500
H      -1.923707    1.878419    0.841160
H      -1.069827    4.157842   -0.771849
H      -0.970374    4.053177    0.989151
H       1.383993    4.156343   -0.054965
