23

C       0.235981    1.523508   -0.294839
C       0.025824    0.023985   -0.016113
C      -1.464415   -0.282825    0.157239
C       0.665071   -0.800007   -1.150331
O       2.058983   -0.788514   -0.897657
C       2.255796   -0.808081    0.518075
C       0.888927   -0.493033    1.171846
C       0.997505    0.413578    2.387905
O       1.728008   -0.303724    3.376072
H       1.290908    1.751022   -0.472528
H      -0.323576    1.822463   -1.187882
H      -0.116510    2.146336    0.533484
H      -2.031774    0.007715   -0.734184
H      -1.634156   -1.350869    0.330311
H      -1.888848    0.265504    1.005197
H       0.268035   -1.830090   -1.145413
H       0.497861   -0.373770   -2.144790
H       2.638068   -1.785984    0.835935
H       3.015709   -0.057522    0.766967
H       0.444054   -1.432109    1.522551
H       1.513672    1.348043    2.121169
H      -0.006491    0.681318    2.755583
H       1.866842    0.277184    4.129693
