18

C      -0.019129    1.351145    0.227545
O      -0.079311   -0.013781   -0.166998
C      -1.341962   -0.547359   -0.056304
C      -1.887081   -1.085133    1.221766
O      -3.039306   -0.641146    1.886409
C      -1.757746   -2.014840    0.027253
N      -2.691469   -1.882183   -1.154565
C      -3.736726   -0.851233   -0.915819
C      -2.355862   -0.420671   -1.215810
H       1.014644    1.674838    0.090967
H      -0.676392    1.979534   -0.389100
H      -0.304690    1.474100    1.280877
H      -1.049084   -1.285150    1.896015
H      -3.389926   -1.385067    2.389730
H      -1.173645   -2.926047    0.076296
H      -4.440714   -0.815901   -1.743755
H      -4.155107   -0.708746    0.068943
H      -2.048673    0.025752   -2.156489
