23

C       0.036362    1.468508   -0.560330
C      -0.008857    0.028375   -0.089576
C       1.208653   -0.790630   -0.185507
O       0.809487   -0.224874    1.067110
C      -1.377501   -0.639343   -0.068928
C      -1.969342   -0.728198   -1.479336
C      -1.482855   -1.997618    0.696042
C      -2.766101   -1.480927    1.398033
C      -2.389709   -0.040002    0.965461
H       1.033594    1.883529   -0.395998
H      -0.202476    1.551853   -1.624769
H      -0.682392    2.080303   -0.004965
H       1.131471   -1.875406   -0.249366
H       2.113457   -0.367339   -0.620646
H      -1.310455   -1.294361   -2.147700
H      -2.938997   -1.235970   -1.460327
H      -2.128012    0.261966   -1.918397
H      -1.570203   -2.899791    0.084175
H      -0.658611   -2.114866    1.401733
H      -3.681272   -1.835386    0.916587
H      -2.850471   -1.668435    2.470503
H      -1.871594    0.500945    1.762072
H      -3.186990    0.594589    0.568373
