21

C       0.000805    1.493080    0.109866
C       1.324581    0.771258    0.052846
C       0.035032   -0.014442    0.056331
C       0.066804   -0.776620   -1.281865
C      -0.568392   -0.101530   -2.510283
C       0.185470    1.176311   -2.975376
C       1.668551    1.261401   -2.516329
C       1.982058    0.390312   -1.287041
O       1.469276   -0.924479   -1.557959
H      -0.262375    1.929286    1.069247
H      -0.353294    2.070525   -0.730555
H       1.965342    0.797772    0.926693
H      -0.278900   -0.569607    0.932758
H      -0.349036   -1.780212   -1.157219
H      -0.545915   -0.845964   -3.312867
H      -1.623371    0.126795   -2.321493
H       0.151932    1.226508   -4.068234
H      -0.354591    2.064192   -2.638677
H       2.316633    0.898137   -3.320603
H       1.950143    2.304076   -2.331152
H       3.065085    0.299954   -1.166445
