20

C      -0.008664    1.534487   -0.015297
C      -0.076617    0.002651   -0.024320
C      -1.478919   -0.513778   -0.003658
O      -2.402669   -0.173027   -1.087619
C      -3.214118   -1.003607   -0.214673
C      -2.032895   -1.963670    0.173385
N      -2.165937   -1.780406    1.649150
C      -3.227785   -2.556155    2.284691
C      -2.577859   -0.451030    1.110065
H       1.027800    1.878159   -0.076168
H      -0.559172    1.950692   -0.863383
H      -0.445650    1.942839    0.901620
H       0.425097   -0.392533   -0.916114
H       0.439507   -0.417430    0.846777
H      -4.245604   -1.191601   -0.510358
H      -1.703106   -2.891013   -0.298180
H      -2.896657   -3.593385    2.400094
H      -3.417820   -2.154391    3.285333
H      -4.182021   -2.560910    1.730530
H      -2.887999    0.388932    1.733777
