18

C      -0.000630    1.551424   -0.032435
O       1.424983    1.853396   -0.029331
C       1.959619    0.568638    0.020246
C       3.407927    0.155867    0.048327
C       3.114200   -1.387780    0.098986
N       1.616116   -1.511723    0.089021
C       1.145921   -0.374043    0.964310
C      -0.014754    0.012423    0.020723
C       1.163391   -0.437621   -0.871642
H      -0.471956    2.019893    0.838999
H      -0.455008    1.958194   -0.942978
H       3.959677    0.460376   -0.844981
H       3.942782    0.521796    0.928770
H       3.522593   -1.920737   -0.763916
H       3.505760   -1.859501    1.004297
H       1.163380   -0.426563    2.054899
H      -0.973124   -0.504539    0.029504
H       1.201537   -0.565444   -1.955457
