23

C       0.008092    1.520305    0.085945
C       1.447815    2.084234    0.045973
C       1.904292    2.682588   -1.313091
C       2.480165    1.715563   -2.321391
C       1.805978    0.920544   -3.152074
C       0.315958    0.746930   -3.178339
C      -0.106033   -0.512470   -2.384487
O       0.509658   -0.626324   -1.119438
C      -0.133711   -0.003734   -0.027212
H      -0.450616    1.781463    1.048863
H      -0.609380    2.018755   -0.670435
H       1.513096    2.888873    0.786944
H       2.159703    1.314532    0.365531
H       1.057121    3.228978   -1.747223
H       2.668106    3.439813   -1.104048
H       3.567451    1.679884   -2.360145
H       2.371115    0.271553   -3.819268
H      -0.183884    1.629568   -2.769810
H      -0.048111    0.624383   -4.206840
H      -1.203268   -0.548034   -2.290570
H       0.206645   -1.402874   -2.942789
H       0.319073   -0.464491    0.858970
H      -1.205523   -0.265632   -0.020117
