16

O      -0.340380   -0.037957   -0.295585
C      -0.196665    1.144946   -0.139142
C       1.125448    1.785105   -0.343993
N       2.140470    2.316456   -0.502070
C      -1.311745    2.124801    0.236749
C      -1.809216    2.872083   -1.022762
C      -2.873706    1.892622   -1.542304
C      -3.442067    1.299284   -0.245064
O      -2.418918    1.438800    0.755001
H      -0.916682    2.811128    0.996490
H      -2.256336    3.821559   -0.715935
H      -1.018281    3.088592   -1.744677
H      -3.637305    2.381619   -2.150319
H      -2.408017    1.110177   -2.148377
H      -4.330950    1.843353    0.098178
H      -3.698390    0.240323   -0.340620
