20

O      -1.349023    1.618751    1.296754
C      -1.361823    0.216826    1.436978
C      -1.468495   -0.463362    0.067061
O      -0.444981    0.067231   -0.789683
C      -1.383946   -1.968213    0.181228
C      -2.500855   -2.923757    0.007969
C      -3.513489   -2.476026   -1.043815
C      -2.309122   -2.344981   -2.009875
N      -1.343455   -2.887271   -0.980432
H      -0.747481    1.792925    0.560650
H      -0.452640   -0.147655    1.949182
H      -2.221667   -0.048229    2.062205
H      -2.406989   -0.141693   -0.392649
H       0.348553   -0.467310   -0.672268
H      -0.642737   -2.292415    0.913316
H      -2.640418   -3.756723    0.690757
H      -4.193346   -3.279417   -1.332392
H      -4.106778   -1.584703   -0.819547
H      -2.351470   -3.033347   -2.855363
H      -2.046657   -1.348756   -2.372685
