20

C       0.045959    1.565258   -0.062696
C       0.088231    0.035954   -0.023093
C       0.696874   -0.528651    1.257973
C       0.658265   -2.051592    1.325321
O       2.077261   -0.072996    1.277917
C       2.687468    0.039911    2.468077
N       2.122978   -0.250228    3.573229
C       4.034713    0.527564    2.324945
C       5.165224    0.931140    2.258913
H       1.051976    1.984444    0.022840
H      -0.391574    1.921200   -1.000117
H      -0.556405    1.965941    0.760198
H      -0.926049   -0.370911   -0.113705
H       0.657212   -0.348514   -0.878628
H       0.198719   -0.107821    2.137199
H       1.111091   -2.405798    2.253165
H      -0.379093   -2.399385    1.295077
H       1.193320   -2.488519    0.476170
H       2.756916   -0.077873    4.349634
H       6.163900    1.288531    2.197142
