20

C       0.072392    1.458259    0.393566
C       1.461216    1.965605   -0.101036
C       1.964675    0.902339   -1.100432
C       1.227337   -0.391765   -0.706624
C      -0.177711    0.130693   -0.351837
C       1.273815   -1.536179   -1.753968
O       1.908662   -2.640394   -1.066596
C       2.175862   -2.174582    0.176736
N       1.861760   -0.990562    0.493404
H       0.099873    1.282726    1.471400
H      -0.725762    2.181645    0.206489
H       1.401447    2.954399   -0.563749
H       2.152453    2.047606    0.740827
H       1.677117    1.167178   -2.125830
H       3.050220    0.773056   -1.085457
H      -0.746787   -0.595496    0.234878
H      -0.728215    0.307267   -1.284683
H       0.282409   -1.864264   -2.080550
H       1.876371   -1.292592   -2.634208
H       2.661197   -2.895623    0.825835
