18

C      -0.519256    1.416795   -0.005226
C      -0.063212   -0.033194    0.007458
C       1.186683   -0.433739   -0.870905
O       1.870414    0.560681   -1.577042
C       1.891504   -0.966455    0.398243
O       2.664243    0.108458    1.027848
C       1.615841    0.391458    1.907090
N       1.567619    1.195172    2.865159
C       0.666608   -0.596917    1.280312
H       0.297451    2.106157    0.224367
H      -0.908148    1.681612   -0.992955
H      -1.309586    1.584221    0.732940
H      -0.905395   -0.686900   -0.237718
H       0.943795   -1.229277   -1.581237
H       2.404927    1.042517   -0.932345
H       2.442296   -1.906179    0.403272
H       2.448188    1.700480    2.978888
H       0.125983   -1.272728    1.938244
