19

C       0.029904    1.493849    0.012610
C       0.039882   -0.017349   -0.069947
C       0.683909   -0.650856   -1.300566
O       0.006766   -1.907409   -1.469820
C      -0.670147   -2.157009   -0.242149
C       0.362455   -2.248379    0.916028
C       0.277860   -0.760396    1.300822
O      -1.153218   -0.645392    1.581500
C      -1.294723   -0.778270    0.149040
H       1.048185    1.893333    0.082226
H      -0.440162    1.935753   -0.872633
H      -0.524102    1.819687    0.897166
H       0.525811   -0.046697   -2.201599
H       1.766473   -0.805494   -1.183506
H      -1.337013   -3.005679   -0.382584
H       0.036159   -2.870128    1.752148
H       1.334466   -2.593933    0.556306
H       0.918897   -0.359796    2.086835
H      -2.262779   -0.484253   -0.254621
