20

C      -0.776197    1.057494   -0.035009
C       0.264975   -0.037956    0.125942
C       1.453981   -0.097964   -0.874639
C       2.416935   -0.395516    0.302550
C       1.289960    0.082927    1.288591
C       2.729451   -1.867059    0.503874
C       3.839061   -2.179454    1.493408
O       2.117726   -2.743642   -0.066249
H      -0.304537    2.046404   -0.079489
H      -1.353996    0.922744   -0.956240
H      -1.483523    1.063328    0.802190
H      -0.220744   -1.017443    0.166087
H       1.406542   -0.863144   -1.650831
H       1.659873    0.876162   -1.328369
H       3.341596    0.186537    0.351843
H       1.449130    1.121660    1.593226
H       1.116140   -0.519387    2.184982
H       3.708151   -1.612709    2.421521
H       3.864376   -3.248877    1.706055
H       4.802497   -1.872583    1.068823
