17

O      -0.008196   -0.031257    0.019528
C       0.018371    1.177191    0.013911
C      -1.216868    2.110044    0.063078
C      -0.672285    3.562214    0.036423
C       0.811830    3.354261   -0.024170
C       1.186709    2.070887   -0.036149
C       2.676469    1.962077   -0.096862
O       3.124326    3.329707   -0.118952
C       2.018201    4.233986   -0.076196
H      -1.867663    1.886649   -0.787320
H      -1.794609    1.891370    0.965864
H      -1.036139    4.131913   -0.827133
H      -0.963857    4.136825    0.923827
H       3.105390    1.446934    0.773817
H       3.032790    1.442154   -0.996946
H       2.026951    4.885460   -0.964619
H       2.099569    4.890475    0.804817
