16

C      -0.377431    1.369451    0.295239
C      -0.053417   -0.067257    0.017819
C       0.205901   -0.624701   -1.211714
N       0.457400   -1.969303   -1.036308
C       0.369563   -2.259616    0.294474
O       0.619901   -3.543451    0.701467
C      -0.340264   -4.160584    1.455557
O      -0.173709   -5.242871    1.919933
C       0.055944   -1.117564    0.986185
H       0.351003    1.825327    0.975723
H      -0.379593    1.956303   -0.627811
H      -1.363677    1.481171    0.760589
H       0.238602   -0.178050   -2.192279
H       0.691934   -2.637176   -1.749917
H      -1.240884   -3.531693    1.564172
H      -0.056351   -1.032876    2.055882
