22

C      -0.091015    1.489304   -0.047389
C       0.000553   -0.009620    0.082069
N      -0.002109   -0.619476    1.205512
O      -0.077487    0.281195    2.284702
C       0.107028   -0.844363   -1.167698
C       1.423601   -0.628713   -1.954027
C       1.425958   -1.775485   -2.984348
C       0.621908   -2.935381   -2.323656
C       0.076049   -2.371047   -0.989608
H       0.813123    1.965901    0.347013
H      -0.218332    1.791588   -1.088726
H      -0.926668    1.871114    0.546256
H      -0.099254   -0.314983    3.040278
H      -0.721572   -0.545141   -1.829433
H       1.499643    0.360039   -2.415400
H       2.266786   -0.732001   -1.259983
H       0.932210   -1.449489   -3.905833
H       2.440978   -2.072308   -3.261856
H      -0.195623   -3.252853   -2.978128
H       1.243527   -3.818904   -2.154509
H       0.729969   -2.640439   -0.155409
H      -0.920551   -2.744027   -0.740509
