21

C       0.463048    1.289840   -0.147566
C       0.078367   -0.158582   -0.106638
C      -0.222254   -0.947222   -1.145077
C      -0.652540   -2.338919   -0.744153
C      -0.344235   -2.374667    0.766655
C       1.112669   -2.757705    1.156612
C       1.294231   -1.378072    1.845467
O       2.476974   -0.653676    1.602981
C      -0.053071   -0.899068    1.204192
H       1.405574    1.461435    0.383797
H       0.562261    1.656175   -1.173315
H      -0.291591    1.904988    0.359989
H      -0.205425   -0.621897   -2.181223
H      -1.718988   -2.496741   -0.958512
H      -0.113568   -3.126447   -1.288053
H      -1.100032   -2.900411    1.351398
H       1.247582   -3.638699    1.788551
H       1.761771   -2.863863    0.280291
H       1.211326   -1.446065    2.933646
H       2.608608   -0.632569    0.648328
H      -0.739951   -0.397994    1.895639
