20

C       0.013334    1.231362   -0.225177
O      -0.151183   -0.146205    0.040902
C       0.608522   -0.614666    1.143496
C       0.105867   -2.023888    1.482988
N      -1.235111   -1.968021    2.042242
C      -2.343005   -2.061906    1.096516
C      -2.005706   -3.208067    1.982434
C       2.049755   -0.621669    0.855359
C       3.226963   -0.637548    0.612098
H       1.051823    1.474193   -0.488495
H      -0.635335    1.471278   -1.070651
H      -0.282664    1.846268    0.638500
H       0.421831    0.027880    2.019721
H       0.172845   -2.641932    0.571034
H       0.776152   -2.457958    2.231942
H      -3.198836   -1.429914    1.314891
H      -2.099819   -2.149848    0.040885
H      -1.539149   -4.076168    1.519138
H      -2.606967   -3.430665    2.859331
H       4.268112   -0.646793    0.402044
