21

C      -0.199970    1.717030    0.165724
C      -0.096847    0.204293    0.390019
C      -1.348125   -0.542429   -0.056919
C      -1.652095   -0.687033   -1.587953
C      -1.804090   -2.214685   -1.414845
O      -0.568518   -2.918034   -1.671032
C      -0.190182   -2.902743   -0.278717
C      -1.437979   -2.082038    0.105669
O      -2.187541   -2.468804    1.212517
H       0.713398    2.228975    0.483739
H      -0.360728    1.950774   -0.892309
H      -1.036723    2.143744    0.729691
H       0.777482   -0.179945   -0.150740
H       0.081479    0.001508    1.454103
H      -2.221488   -0.124885    0.455766
H      -2.554455   -0.168077   -1.919283
H      -0.825411   -0.428647   -2.254699
H      -2.677262   -2.723756   -1.830874
H      -0.195475   -3.916293    0.152427
H       0.797262   -2.457921   -0.110315
H      -2.234562   -3.431157    1.235956
