17

C      -0.105819    1.496607    0.027620
C       0.050590    0.007610   -0.026437
C       1.067280   -0.812036   -0.821944
C       0.215637   -2.044919   -0.409977
O       0.404980   -2.141793    1.027895
C      -0.363440   -0.941965    1.121903
C      -1.020198   -1.068292   -0.209445
C       0.241921   -3.349535   -1.135026
O       0.173555   -3.438416   -2.335093
H       0.772309    1.967410    0.483957
H      -0.232489    1.922070   -0.973960
H      -0.980982    1.782229    0.621568
H       0.986370   -0.628512   -1.895506
H       2.113728   -0.828462   -0.500712
H      -0.729544   -0.625541    2.089910
H      -2.041144   -1.066702   -0.565735
H       0.317895   -4.238291   -0.471825
