21

O      -0.065766    1.425497   -0.026971
C       0.008264    0.010191    0.010977
C       0.762438   -0.510420    1.246054
C       0.803230   -2.064629    1.191778
C       0.102235   -2.520701   -0.095764
C      -1.368460   -2.080818   -0.100842
C      -1.425589   -0.532624    0.028160
O       0.776265   -1.960144   -1.226303
C       0.709586   -0.532449   -1.246392
H       0.828687    1.773020    0.063027
H       1.778393   -0.096187    1.249248
H       0.264149   -0.144829    2.149116
H       1.833274   -2.430858    1.185834
H       0.307323   -2.506809    2.062247
H       0.185593   -3.603428   -0.222950
H      -1.830118   -2.414073   -1.034461
H      -1.906419   -2.570120    0.717525
H      -1.916140   -0.217404    0.954185
H      -1.982152   -0.081559   -0.798318
H       0.168831   -0.197688   -2.142631
H       1.734115   -0.132788   -1.306258
