17

N       0.171240    0.258364   -0.980242
C      -0.124167    0.112797    0.342921
O       0.353349    0.809755    1.217154
C      -1.154431   -0.984482    0.636594
C      -0.801486   -2.350004    0.059137
C      -1.902135   -3.435723    0.088373
C      -1.816013   -3.381147   -1.449288
O      -0.791190   -2.362230   -1.398358
H       0.907023    0.901500   -1.224058
H      -0.119412   -0.445890   -1.643352
H      -1.237759   -1.058096    1.723930
H      -2.128588   -0.671515    0.240487
H       0.171271   -2.682692    0.442596
H      -1.611713   -4.383660    0.542353
H      -2.851915   -3.108235    0.514949
H      -1.451405   -4.291357   -1.938493
H      -2.713742   -3.031542   -1.971541
