19

O      -0.085324    1.394729    0.073285
C       0.034406    0.021054    0.029188
C      -1.053025   -0.998845    0.103624
C      -0.211013   -0.872097   -1.178199
C       0.855175   -2.006720   -1.174505
C       0.245468   -3.029348   -0.183419
C      -0.145799   -1.979942    0.870927
C       1.023741   -0.884939    0.800119
C       1.975733   -1.402581   -0.290410
H       0.587354    1.778468   -0.500051
H      -2.129801   -0.890183    0.137716
H      -0.659631   -0.467826   -2.076136
H       1.147816   -2.383495   -2.154309
H      -0.627770   -3.553544   -0.583715
H       0.976649   -3.766584    0.164246
H      -0.459432   -2.316732    1.857074
H       1.431611   -0.518290    1.740082
H       2.694194   -2.154753    0.051467
H       2.523009   -0.587890   -0.777996
