15

C      -0.001236    1.630264   -0.037522
C       0.273660    0.135215    0.147747
C       0.666360   -0.553781   -1.143005
C       0.663421   -2.093297   -1.183741
C      -0.466550   -1.904003   -2.196557
O      -1.180601   -2.582026   -2.861410
O      -0.430437   -0.534410   -2.133352
H       0.889420    2.155128   -0.399814
H      -0.802486    1.786305   -0.765161
H      -0.301611    2.093419    0.906402
H       1.085198   -0.018090    0.870961
H      -0.613055   -0.365014    0.556510
H       1.550206   -0.091334   -1.593050
H       1.552981   -2.577114   -1.589821
H       0.360780   -2.594031   -0.261818
