18

C      -0.145722    1.583484    0.048977
C      -0.181405    0.057657   -0.054159
C       0.757760   -0.489640   -1.127717
O       2.129258   -0.188900   -0.826965
C       2.925833   -1.306607   -0.788990
N       4.159562   -1.288294   -0.533884
C       2.109429   -2.537524   -1.094695
C       0.692415   -2.015316   -1.256763
O      -0.312638   -2.647016   -1.442341
H       0.863356    1.934577    0.281448
H      -0.456682    2.050189   -0.892051
H      -0.818723    1.935102    0.836055
H       0.087075   -0.394531    0.908311
H      -1.187765   -0.296960   -0.302330
H       0.514576   -0.039783   -2.100953
H       4.476208   -0.331884   -0.362958
H       2.447433   -3.022854   -2.015865
H       2.175026   -3.284800   -0.299622
