16

C      -0.333564    1.314748    0.105628
N      -0.059377   -0.116286    0.043098
C       0.192469   -0.786032    1.237233
O       0.196521   -0.240537    2.315764
C      -0.115074   -0.852107   -1.158387
N      -0.313624   -2.102101   -1.153491
N       0.085185   -0.038326   -2.296495
C       0.041794   -0.458017   -3.606691
O      -0.174802   -1.584655   -3.985519
H       0.506489    1.917467   -0.264011
H      -1.238861    1.565213   -0.453858
H      -0.476939    1.557780    1.158555
H       0.389215   -1.852355    1.071901
H      -0.263267   -2.478740   -2.097388
H       0.320056    0.930919   -2.151040
H       0.234516    0.382898   -4.299042
