21

C      -0.386928    1.527453   -0.014673
C       0.001188    0.050959   -0.004673
C       0.927927   -0.395647   -1.170936
C       1.919530   -1.386028   -0.496446
C       3.291185   -0.750432   -0.211341
C       3.149751    0.302678    0.861538
C       2.002544    0.463429    1.520773
C       0.826787   -0.440897    1.212875
O       1.306284   -1.707086    0.758401
H       0.500150    2.168607    0.001207
H      -0.963578    1.773510   -0.912196
H      -1.005264    1.783685    0.852995
H      -0.909218   -0.558362   -0.027019
H       0.359562   -0.878003   -1.969778
H       1.452956    0.457543   -1.610631
H       2.029537   -2.320531   -1.051928
H       4.008719   -1.519129    0.107009
H       3.701137   -0.311741   -1.130959
H       4.015917    0.919560    1.086960
H       1.883156    1.233174    2.277434
H       0.215288   -0.618647    2.101950
