16

C      -0.192269   -1.246350   -0.177706
C      -0.133536   -0.049564   -0.075100
C      -0.050410    1.388283    0.061685
C       0.039682    1.981222    1.496630
O       1.280517    2.646497    1.192362
C       1.336572    2.086820   -0.128193
C       2.546031    1.169051   -0.328770
C       3.803227    1.911998   -0.308001
N       4.794170    2.505743   -0.303640
H      -0.254032   -2.302789   -0.271079
H      -0.825147    1.870150   -0.539763
H      -0.753216    2.688057    1.761808
H       0.151327    1.237300    2.292413
H       1.336192    2.871906   -0.893027
H       2.562127    0.401463    0.450921
H       2.451601    0.650655   -1.289956
