16

C       0.021478   -1.276721    0.032245
C      -0.009121   -0.079966   -0.068179
C      -0.046732    1.375542   -0.163978
N       1.302629    1.953366   -0.069727
C       1.889283    1.974016    1.303771
C       2.698896    3.262777    0.984487
O       2.283041    3.977383    2.180546
C       1.090160    3.238651    1.799842
C       1.334988    3.411685    0.252457
H       0.046838   -2.335515    0.109281
H      -0.466161    1.669884   -1.134398
H      -0.736256    1.765516    0.607037
H       2.190695    1.079604    1.847515
H       3.713314    3.381414    0.609663
H       0.202510    3.351211    2.421376
H       0.993853    4.194489   -0.425972
