15

O      -0.058088    0.091442   -0.722003
C      -0.069367    1.184416   -0.213714
C       1.133635    2.053058   -0.146754
C       1.074218    3.556291   -0.300204
O      -0.191144    4.167500   -0.280358
C      -0.721512    4.164595    1.039209
C       0.273980    3.410646    1.931368
O       0.183240    3.266849    3.121190
C       1.417927    3.006464    1.044600
H      -0.998733    1.597064    0.231320
H       2.024923    1.574143   -0.540035
H       1.778980    4.051989   -0.957977
H      -0.833450    5.193471    1.404456
H      -1.707870    3.686400    1.059449
H       2.408611    2.973644    1.478278
