21

C      -0.027943    1.550468   -0.022418
C       0.001237    0.019679   -0.006572
C       0.613452   -0.511620   -1.311662
O       0.833364   -1.915723   -1.335222
C       1.231527   -2.524948   -0.140112
C       2.290339   -2.081587    0.840768
C       2.337781   -0.569392    1.063098
C       0.775300   -0.547131    1.192100
C       0.778549   -2.090335    1.205369
H       0.986331    1.965259   -0.045987
H      -0.563259    1.932857   -0.898507
H      -0.526345    1.941913    0.870232
H      -1.030058   -0.353709    0.063608
H      -0.053613   -0.303760   -2.154843
H       1.558760    0.015644   -1.511524
H       1.235464   -3.598906   -0.301412
H       3.065956   -2.771954    1.154825
H       2.800634   -0.332314    2.024454
H       2.812425    0.048778    0.295195
H       0.433792   -0.093306    2.124930
H       0.223282   -2.716759    1.894064
