19

C       0.153986    1.624500   -0.451721
C      -0.252096    0.334237    0.236216
O      -0.709076    0.283649    1.358215
N      -0.056033   -0.800476   -0.534175
C      -0.362603   -2.084576   -0.109652
N      -0.149133   -3.074892   -0.870542
C      -0.475060   -4.392713   -0.410094
C       0.600365   -5.280675    0.155381
C      -0.538193   -4.815073    1.039894
H       1.212804    1.601039   -0.730357
H      -0.427357    1.775343   -1.367502
H      -0.022938    2.455559    0.229654
H       0.330030   -0.723321   -1.464164
H      -0.785060   -2.110518    0.895989
H      -1.171492   -4.886671   -1.083193
H       0.636870   -6.318273   -0.157593
H       1.570378   -4.824952    0.322930
H      -0.299973   -4.090517    1.810083
H      -1.299155   -5.530968    1.330826
