15

O       0.171202    1.413611   -0.214131
C       0.005408    0.017075   -0.042221
C       0.619088   -0.545979    1.253641
C      -0.256768   -1.311087    1.934640
C      -1.508808   -1.293269    1.184660
C      -1.405610   -0.514291    0.062071
N      -2.571285   -0.495525   -0.650678
C      -3.386636   -1.261930    0.049355
N      -2.788038   -1.780003    1.180160
H      -0.395949    1.849268    0.431467
H       0.522745   -0.438993   -0.897739
H       1.638647   -0.324385    1.539878
H      -0.071576   -1.833806    2.864224
H      -4.415155   -1.480321   -0.195729
H      -3.221081   -2.394240    1.849102
