18

C      -0.159578    1.553336    0.001641
C      -0.000682    0.042229    0.015299
O      -1.265707   -0.524776    0.244176
C       0.856197   -0.519217   -1.164189
C       1.034044   -2.012194   -0.840825
C       2.383542   -1.853360   -0.259877
C       2.170623   -0.317035   -0.301859
C       1.170877   -0.471871    0.880979
N       1.218399   -1.981974    0.668349
H       0.791410    2.056433   -0.194014
H      -0.870961    1.844589   -0.776845
H      -0.548564    1.900830    0.963060
H      -1.126585   -1.456066    0.454608
H       0.739223   -0.200155   -2.198062
H       0.546163   -2.881439   -1.262860
H       3.248754   -2.503856   -0.221233
H       2.896102    0.476564   -0.449040
H       1.334294   -0.179656    1.917578
