23

C      -0.015232    1.332223   -0.275821
O      -0.097196    0.067755    0.341810
C      -1.345731   -0.556560    0.183101
C      -1.585396   -1.290793   -1.175813
C      -0.659366   -2.407119   -0.615122
C      -1.319185   -2.010232    0.747556
C      -0.684207   -2.320107    2.081632
C      -2.783987   -2.431421    0.509930
C      -2.988072   -1.879143   -0.941819
H       0.972250    1.741262   -0.048191
H      -0.129682    1.269965   -1.367856
H      -0.782412    2.021321    0.111043
H      -2.150583    0.110241    0.535156
H      -1.395336   -0.807053   -2.134532
H      -0.812427   -3.428586   -0.977512
H       0.395513   -2.137689   -0.655109
H       0.312888   -1.875873    2.149009
H      -1.285800   -1.923280    2.908083
H      -0.589691   -3.401789    2.231104
H      -2.908096   -3.516821    0.571799
H      -3.466371   -1.976554    1.235387
H      -3.775064   -1.120356   -0.995656
H      -3.232228   -2.664919   -1.662094
