18

C       0.164029    1.445498   -0.336970
C      -0.024191    0.025376    0.203748
C      -1.458780   -0.489396    0.081328
C      -1.902371   -1.095047   -1.249203
C      -1.687071   -1.991450   -0.069491
C      -2.441916    0.238530    0.823942
C      -3.256307    0.864897    1.465063
C      -4.181868    1.563250    2.182646
N      -4.971050    2.158853    2.794240
H       1.204669    1.764901   -0.230282
H      -0.100588    1.503225   -1.397727
H      -0.464152    2.159634    0.203841
H       0.627019   -0.670456   -0.338112
H       0.279780   -0.018387    1.256044
H      -2.918419   -0.909486   -1.575570
H      -1.162306   -1.093482   -2.042137
H      -0.799840   -2.614327   -0.042969
H      -2.556409   -2.417661    0.416437
