19

C      -0.087941    1.729919    0.240247
C      -0.033864    0.217199    0.018459
C       0.925787   -0.201371   -1.145797
C       1.960691   -0.585259   -0.082086
O       3.140464   -0.781437   -0.104570
C       0.916922   -0.506154    1.039993
C      -1.430327   -0.357265   -0.039396
C      -2.167775   -0.559399   -1.291633
O      -1.581826   -1.664742   -0.594162
H       0.919836    2.149724    0.324823
H      -0.593164    2.233003   -0.590975
H      -0.627390    1.975325    1.161908
H       0.564449   -1.098044   -1.660934
H       1.218423    0.554622   -1.878455
H       1.205693    0.032928    1.945890
H       0.558580   -1.504428    1.313871
H      -2.018108   -0.196919    0.867604
H      -3.256102   -0.534285   -1.292569
H      -1.695566   -0.307410   -2.240058
