13

N      -0.116359    1.277511    0.007249
C       0.005348    0.022150    0.000110
C      -1.176020   -0.924451    0.002335
O      -0.614252   -2.237412   -0.007322
C       0.739783   -2.198424   -0.015390
O       1.442876   -3.153789   -0.023799
N       1.134325   -0.825066   -0.010746
C       2.466638   -0.380889   -0.016535
O       3.433847   -1.083903   -0.025492
H       0.764138    1.788647    0.004728
H      -1.790022   -0.794044    0.897306
H      -1.800342   -0.785372   -0.884156
H       2.513248    0.722408   -0.011533
