18

C      -0.031191    1.582130    0.055005
C      -0.017868    0.052126    0.006804
C       0.719027   -0.489364   -1.221455
C       0.713143   -2.024236   -1.295910
N      -0.622040   -2.590390   -1.522314
C      -0.521290   -3.276787   -2.580670
O       0.693957   -3.342028   -3.219235
C       1.557430   -2.551139   -2.454416
O       2.697757   -2.381367   -2.746894
H       0.985690    1.989340    0.078998
H      -0.534742    2.001854   -0.822790
H      -0.556448    1.944515    0.943777
H       0.459070   -0.341541    0.914107
H      -1.043080   -0.333130    0.006015
H       0.264534   -0.091593   -2.137363
H       1.766020   -0.163900   -1.219690
H       1.118470   -2.427469   -0.358508
H      -1.310723   -3.841522   -3.061888
