17

C      -0.040616    1.511542   -0.041375
C      -0.050540    0.014648    0.065131
C      -1.255526   -0.804573   -0.366476
O      -1.044656   -2.115598    0.137806
C      -0.210855   -2.054688    1.284688
C       0.610170   -0.783745    1.123567
O       1.175303   -0.677954   -0.199169
C       1.352949   -0.246903    2.223125
C       1.962744    0.177721    3.168293
H       0.845994    1.921089    0.446856
H      -0.031495    1.819875   -1.092114
H      -0.931467    1.939149    0.429550
H      -2.172990   -0.350507    0.042833
H      -1.356552   -0.876865   -1.454521
H      -0.791485   -1.995307    2.218690
H       0.403235   -2.959873    1.305876
H       2.509544    0.555200    3.997036
