21

C       1.028741    1.380545   -0.313931
N       0.773225   -0.004816    0.084478
C      -0.626165   -0.484205    0.420981
C       0.081275   -1.710103    1.063429
C       0.822274   -0.429549    1.540007
C      -0.591272    0.166695    1.842252
N      -0.776433    1.589312    2.012444
C      -2.096780    2.000132    2.484501
C      -0.921027    2.044433    3.393318
H       0.538228    2.151715    0.284243
H       2.113198    1.538608   -0.284083
H       0.718753    1.486335   -1.360170
H      -1.435583   -0.476046   -0.311660
H      -0.472204   -2.284472    1.807899
H       0.644528   -2.324707    0.364382
H       1.733615   -0.356534    2.136755
H      -1.159327   -0.398769    2.605133
H      -2.493802    2.909735    2.043815
H      -2.834586    1.219869    2.666946
H      -0.875512    1.293674    4.181197
H      -0.438236    2.987192    3.632746
