19

O       0.020961    1.533449   -0.312675
C      -0.184829    0.143495   -0.193290
C       0.640958   -0.552100    0.911269
C      -0.236379   -1.762226    1.386224
C      -1.548685   -1.656775    0.543976
C      -1.636963   -0.169467    0.184313
O      -1.966776    0.623328    1.316621
C       0.415510   -3.057645    1.266182
C       0.951504   -4.128163    1.149843
H       0.943745    1.677916   -0.542841
H       0.003273   -0.359170   -1.156243
H       1.621317   -0.876797    0.556159
H       0.786689    0.154338    1.731376
H      -0.493719   -1.602116    2.437499
H      -1.465459   -2.262250   -0.364277
H      -2.424717   -2.011000    1.094925
H      -2.325725    0.029311   -0.648147
H      -2.861501    0.393415    1.585269
H       1.427225   -5.072702    1.057609
