19

C       0.497286    1.211854    0.539820
C       0.196289   -0.111040   -0.125971
O       1.032394   -0.691953   -0.786409
C      -1.221748   -0.683673    0.026336
C      -1.284997   -2.142489   -0.504969
O      -1.013970   -2.219435   -1.880979
C      -1.716712   -0.658658    1.472638
C      -3.202188   -0.446086    1.683751
O      -0.952538   -0.841666    2.394181
H       1.437351    1.610993    0.157807
H      -0.313658    1.929560    0.375037
H       0.576786    1.052270    1.619446
H      -1.887087   -0.074699   -0.601234
H      -0.591075   -2.752291    0.091070
H      -2.293213   -2.543226   -0.356830
H      -0.092308   -1.940532   -1.970519
H      -3.463856    0.584368    1.413644
H      -3.791896   -1.100224    1.033006
H      -3.460277   -0.622499    2.728438
