19

C      -0.033678    1.456313   -0.156117
C       0.158356   -0.039087   -0.041577
C       1.552044   -0.650892   -0.024228
C       0.690642   -0.657213    1.214141
O       1.002315    0.225655    2.253033
C       0.083566   -1.969074    1.735433
O      -0.317670   -2.851949    0.697160
C       1.018793   -2.611722    2.668188
C       1.833197   -3.121589    3.392314
H       0.709049    1.993128    0.438019
H       0.055566    1.779733   -1.198720
H      -1.024404    1.754971    0.203047
H      -0.584985   -0.645320   -0.551011
H       1.717188   -1.572379   -0.572657
H       2.396019    0.030811   -0.012269
H       1.703403   -0.181612    2.776802
H      -0.834861   -1.710020    2.276192
H       0.463433   -3.332424    0.402511
H       2.527611   -3.588820    4.046875
