20

C      -0.041245    1.535500   -0.016609
C       0.080452    0.021877    0.056008
O       0.940327   -0.480602   -0.999091
C       1.885631   -1.270366   -0.260388
C       2.285375   -0.347435    0.912907
C       0.783380   -0.588687    1.292872
C       0.208121   -0.300048    2.658806
C       1.003002   -2.042462    0.746231
H       0.912035    2.033394    0.180839
H      -0.373786    1.831065   -1.016068
H      -0.780214    1.897973    0.706052
H      -0.919336   -0.421228   -0.063767
H       2.591783   -1.736790   -0.945428
H       2.968585   -0.817830    1.623280
H       2.618943    0.663206    0.668363
H       0.237585    0.770920    2.887934
H      -0.837338   -0.624525    2.723128
H       0.767253   -0.822587    3.441545
H       0.139936   -2.580940    0.345080
H       1.569442   -2.670531    1.437043
