17

O       0.201610    1.409040   -0.321011
C       0.166539    0.030731   -0.030915
C      -1.241354   -0.549764   -0.006473
O      -1.935966   -0.589716   -1.300130
C      -2.237276   -1.976663   -1.115118
C      -0.988406   -2.787259   -1.094198
C      -1.430697   -2.062921    0.164654
C      -2.178929    0.209313    0.922780
O      -1.841687    1.109171    1.652201
H      -0.231288    1.852500    0.418753
H       0.747978   -0.471132   -0.808348
H       0.635044   -0.204349    0.939057
H      -3.226360   -2.322303   -1.389183
H      -1.134679   -3.861838   -1.042363
H      -0.123793   -2.467011   -1.665804
H      -1.625786   -2.570031    1.099696
H      -3.235435   -0.126302    0.859083
