20

C      -0.435280    1.518656    0.357680
C      -0.140603    0.035435    0.252597
O      -1.230821   -0.751946    0.727868
C       0.265163   -0.531682   -1.113796
N       1.539591    0.128311   -1.477010
C       1.550699   -1.060189   -0.589324
C       1.254666   -0.546152    0.838066
C       2.260539    0.405609    1.454464
O       1.017109   -1.592558    1.747812
H       0.352837    2.095605   -0.129429
H      -1.390902    1.750488   -0.124300
H      -0.492850    1.835883    1.406360
H      -1.513994   -0.379007    1.570616
H      -0.409946   -0.925872   -1.863801
H       1.785970   -0.186583   -2.414411
H       2.095480   -1.959927   -0.849888
H       2.567074    1.165785    0.734041
H       1.839576    0.894511    2.338840
H       3.144578   -0.155469    1.774257
H       0.139442   -1.938606    1.527333
