15

N       0.013973    1.439202    0.166417
C       0.039955    0.036695    0.040131
C      -1.040604   -0.820474    0.005905
N      -0.586216   -2.154047   -0.031355
C       0.763413   -2.086092   -0.029079
C       1.215291   -0.786689    0.017519
C       2.651172   -0.917440    0.020932
C       2.909232   -2.251443   -0.024077
O       1.738863   -3.008934   -0.055720
H       0.703346    1.885718   -0.426722
H      -0.895873    1.825200   -0.054067
H      -2.097352   -0.609731    0.011825
H      -1.162057   -2.975165   -0.042586
H       3.401212   -0.142462    0.058853
H       3.816130   -2.831123   -0.037411
