19

C       0.953738   -0.817865   -1.404656
C       0.203505   -0.147767   -0.245177
C       0.667125   -0.635711    1.126561
C       1.970440    0.019449    1.547714
O       2.531158    0.864739    0.890699
C      -0.348720   -0.825979    2.318109
C      -0.976268   -2.053818    1.616217
C       0.563830   -2.152742    1.548408
O       0.611632   -1.743555    2.970601
H       0.782094   -1.900034   -1.422863
H       0.619977   -0.414151   -2.365047
H       2.029621   -0.643019   -1.324829
H       0.381532    0.931147   -0.284924
H      -0.872442   -0.294075   -0.368940
H       2.379835   -0.326359    2.512875
H      -0.814720   -0.061148    2.940418
H      -1.437505   -2.767035    2.299790
H      -1.545681   -1.918288    0.697634
H       1.198110   -2.986531    1.246226
