11

O      -0.047522   -0.006940   -0.000544
C      -0.022580    1.182558    0.008078
N       1.185697    1.942410    0.000586
N       2.413360    1.360848   -0.017102
N       3.296975    2.302513   -0.019715
C       2.675649    3.519992   -0.003750
C       1.318863    3.314938    0.009294
C       0.229890    4.213333    0.027770
N      -0.668936    4.943098    0.042963
H      -0.902222    1.846308    0.022579
H       3.224528    4.446979   -0.002730
