19

C      -0.415078    1.529280   -0.161066
C      -0.064965    0.057591   -0.019933
C       1.080252   -0.634010   -0.802279
C       2.352474    0.171452   -0.450308
C       2.135524    0.184724    1.105399
C       2.196455    1.522478    1.790477
O       1.320726    1.982969    2.481118
C       0.781765   -0.560253    1.126867
O       1.084812   -1.673175    0.224684
H       0.460197    2.181843   -0.183837
H      -0.974507    1.692852   -1.088542
H      -1.040545    1.859519    0.673147
H      -0.958304   -0.563460   -0.123693
H       0.973516   -1.008351   -1.820743
H       3.258537   -0.361179   -0.742564
H       2.371924    1.167055   -0.903128
H       2.903999   -0.438300    1.581266
H       3.152512    2.076936    1.640681
H       0.366230   -0.854982    2.088814
