13

N      -0.157590    1.287158    0.242906
C      -0.596753    0.118980   -0.288750
O      -1.191001   -0.012482   -1.327774
O      -0.267178   -0.897961    0.575101
C      -0.624174   -2.178342    0.284653
N      -0.250479   -3.115280    1.148799
N      -0.741369   -4.220050    0.596769
N      -1.396006   -4.078704   -0.542743
C      -1.340456   -2.765958   -0.776807
H      -0.213354    2.107684   -0.333149
H       0.443650    1.284913    1.047702
H      -0.617722   -5.119580    1.030924
H      -1.785900   -2.314881   -1.642403
