16

O      -0.197844    1.318800   -0.361232
C      -0.018783   -0.015168    0.000988
C      -0.366948   -0.442538    1.399383
C      -1.273550   -0.790890    0.229368
C       1.181679   -0.639617   -0.749980
C       2.412880    0.091387   -0.432712
C       3.385346    0.739545   -0.156927
C       1.337056   -2.075879   -0.484509
N       1.433285   -3.207466   -0.274127
H       0.561049    1.816803   -0.031134
H       0.197335   -1.244956    1.861167
H      -0.696110    0.340729    2.072119
H      -2.196553   -0.233476    0.122891
H      -1.317254   -1.826013   -0.089032
H       0.972372   -0.525224   -1.822660
H       4.262674    1.291222    0.078038
