15

O       0.234957    1.404822    0.094358
C       0.038092    0.022160    0.016932
C      -1.488402   -0.363404   -0.020226
N      -1.210559   -1.058157   -1.300073
C       0.099620   -0.627421   -1.375600
N       0.753592   -0.792315   -2.452960
C      -0.246557   -1.459068   -3.322097
C      -1.608256   -1.522759   -2.553512
O      -2.690577   -1.880333   -2.933220
H       1.157214    1.593037   -0.111333
H       0.602518   -0.530273    0.779544
H      -1.848200   -1.019257    0.773521
H      -2.132776    0.511354   -0.128255
H      -0.370661   -0.910666   -4.260933
H       0.074618   -2.475079   -3.576547
