19

C      -0.348600    1.395526    0.164259
C       0.186519   -0.027266    0.002065
N       0.827487   -0.522134    1.210388
C       0.351731   -1.429389    2.096563
C       1.294463   -1.550845    3.104337
C       1.234743   -2.445777    4.304829
O       0.796894   -3.765502    3.995836
C       2.314069   -0.655624    2.715296
N       2.028824   -0.031662    1.574258
H       0.464087    2.073271    0.435453
H      -0.793397    1.739485   -0.774381
H      -1.112533    1.439803    0.946119
H      -0.618803   -0.724643   -0.245143
H       0.924852   -0.067680   -0.803979
H      -0.595170   -1.924304    1.948128
H       2.216927   -2.451952    4.803053
H       0.511316   -2.076742    5.041173
H       1.354291   -4.085558    3.278500
H       3.246022   -0.446781    3.221969
