18

C      -0.229963    1.392037   -0.003353
O      -0.240727    0.021761    0.357363
C      -1.391379   -0.674422   -0.070536
C      -1.443999   -0.751445   -1.551927
N      -1.464775   -0.796000   -2.706378
C      -1.365292   -2.063309    0.527118
C      -1.701276   -2.229029    1.994580
C      -2.653378   -2.720963    0.936571
O      -3.826790   -2.003534    0.684789
H       0.679607    1.820270    0.421935
H      -0.216209    1.527168   -1.093120
H      -1.103500    1.921003    0.406569
H      -2.305959   -0.158547    0.256737
H      -0.594267   -2.706299    0.117121
H      -1.131851   -2.945594    2.575338
H      -1.990172   -1.331879    2.531912
H      -2.730476   -3.794735    0.771654
H      -4.436736   -2.162050    1.412651
