23

C       0.065034    1.490882   -0.072991
C       0.033885   -0.023275   -0.035579
C      -1.261572   -0.635469   -0.564684
C      -1.272948   -2.188992   -0.517413
C       0.044577   -2.732261    0.059611
C       0.279977   -2.110449    1.455175
C       0.746163   -0.701199    1.115796
C       1.339897   -0.748031   -0.283869
C       1.225642   -2.185038   -0.774233
H       1.011622    1.880415    0.315279
H      -0.054330    1.864835   -1.097279
H      -0.744482    1.919263    0.530686
H      -2.100235   -0.230354    0.014959
H      -1.418364   -0.284251   -1.592071
H      -2.110454   -2.544492    0.092553
H      -1.425798   -2.598621   -1.521752
H       0.021386   -3.825156    0.086339
H      -0.623499   -2.138867    2.075936
H       1.068320   -2.645081    1.998999
H       1.183079   -0.082643    1.893171
H       2.216967   -0.164209   -0.544095
H       2.151564   -2.730538   -0.554780
H       1.042657   -2.270267   -1.852044
