16

C      -0.137816    1.529945    0.021101
C       1.399701    1.524936   -0.203763
N       1.424626    0.134327    0.280924
C      -0.039948   -0.001914    0.259862
C       2.304775   -0.814604   -0.133228
N       2.058393   -2.126554   -0.118900
N       3.226007   -2.589500   -0.577808
N       4.122490   -1.668565   -0.861651
N       3.558318   -0.518262   -0.587363
H      -0.447717    2.089739    0.904437
H      -0.742000    1.840823   -0.830852
H       1.703938    1.619808   -1.252986
H       1.993670    2.218188    0.398072
H      -0.467116   -0.390420    1.188940
H      -0.400545   -0.614208   -0.576418
H       3.409210   -3.573507   -0.698409
