19

O      -0.022714    1.376338   -0.019651
C       0.036211   -0.025070   -0.047813
C       0.735982   -0.665371   -1.257317
C       0.016915   -2.038009   -1.389510
C      -0.727569   -2.127883   -0.054850
O       0.297560   -2.118427    0.982533
C       0.292287   -0.729921    1.338694
C      -1.190027   -0.465455    1.682817
C      -1.347515   -0.726985    0.165065
H       0.873489    1.710985    0.092214
H       0.598462   -0.032084   -2.138009
H       1.811982   -0.780141   -1.091581
H      -0.687908   -2.045220   -2.228820
H       0.705792   -2.876088   -1.517147
H      -1.379239   -2.993891    0.076475
H       1.134154   -0.501533    1.993964
H      -1.658342   -1.153309    2.389694
H      -1.393157    0.575095    1.934399
H      -2.233628   -0.464057   -0.411837
