16

O      -0.104458    1.318684    0.371651
N       0.003013   -0.078617    0.399011
C      -1.028025   -0.634391   -0.084814
C      -2.419046   -0.197889   -0.514667
C      -2.860296   -1.685747   -0.420536
O      -2.770504   -2.359145   -1.682628
C      -1.423681   -2.814018   -1.423994
C      -1.367865   -2.105283   -0.053530
O      -0.891244   -2.893990    0.977385
H       0.726513    1.598559    0.771446
H      -2.884556    0.477164    0.210517
H      -2.510420    0.231796   -1.514628
H      -3.756286   -1.936111    0.149730
H      -1.382408   -3.903035   -1.305468
H      -0.708846   -2.494151   -2.189396
H      -0.558769   -2.309913    1.668740
