16

C       0.298967    1.496617   -0.178427
C      -0.049460    0.058555   -0.094061
C      -1.181955   -0.655236    0.089182
N      -0.907690   -2.023344    0.081025
C       0.368535   -2.068352   -0.105635
N       1.240018   -3.128813   -0.208832
C       0.973710   -4.486011   -0.140485
N      -0.181041   -4.977210    0.038512
O       0.981775   -0.859498   -0.224204
H       1.007073    1.790899    0.605071
H       0.752789    1.749879   -1.143704
H      -0.606174    2.096946   -0.060885
H      -2.187196   -0.289105    0.228282
H       2.198813   -2.859701   -0.355348
H       1.903965   -5.054418   -0.263678
H      -0.123909   -5.993589    0.052289
