17

O       0.039452    1.416372   -0.566514
C       0.013143    0.067270   -0.140769
C       0.031206   -0.187049    1.404056
C      -1.185471   -1.130121    1.238761
C      -1.436403   -0.546547   -0.189834
C      -2.515209    0.510623   -0.197670
O      -3.424237    0.536389   -0.985990
C       0.987873   -0.741639   -0.860276
C       1.817563   -1.383440   -1.448559
H       0.943867    1.645275   -0.804589
H       0.947543   -0.598829    1.829440
H      -0.226319    0.741001    1.920319
H      -0.904922   -2.183525    1.192370
H      -1.999797   -1.016012    1.957457
H      -1.627652   -1.250258   -0.999681
H      -2.436718    1.267982    0.613282
H       2.542362   -1.954544   -1.975111
