14

C      -0.219064    1.488023   -0.071399
C       0.131207    0.013247   -0.013137
O       1.105013   -0.320740   -1.008661
C       1.906728   -1.329462   -0.464682
O       1.899812   -1.171363    0.947570
C       0.812637   -0.402021    1.288669
O       0.523933   -0.139916    2.412353
C       1.401050   -2.684589   -0.814045
N       1.012215   -3.729463   -1.113568
H       0.681619    2.100117    0.019438
H      -0.714941    1.723923   -1.015347
H      -0.892612    1.726715    0.755366
H      -0.768568   -0.607653   -0.141065
H       2.929650   -1.214913   -0.832243
