19

C      -0.116480    1.525180   -0.034351
C      -0.039914    0.006184   -0.025419
C       1.224038   -0.588622   -0.707440
O       1.973230   -0.350737    0.524652
C       0.689436   -0.643845    1.195210
C       0.589684   -0.142895    2.607501
C       0.569832   -2.159246    0.918844
C       0.966731   -2.095934   -0.573902
O       1.043160   -2.969800   -1.390500
H       0.853385    1.965434    0.210251
H      -0.421222    1.889756   -1.020425
H      -0.852769    1.884612    0.692384
H      -0.999283   -0.445200   -0.302943
H       1.678895   -0.199996   -1.616577
H       0.726834    0.940435    2.654095
H      -0.389856   -0.389949    3.029654
H       1.356730   -0.613454    3.230745
H       1.288631   -2.739603    1.503407
H      -0.428748   -2.583785    1.056901
