15

C       0.088721   -1.189071   -0.018595
C       0.003227    0.013015    0.001957
C      -0.040752    1.426249    0.005949
C      -1.131415    2.209914    0.087547
C      -0.795077    3.682809    0.032718
C       0.728883    3.691053   -0.024097
N       1.365378    3.102175    1.172603
C       1.195972    2.279476   -0.054489
H       0.148451   -2.248966   -0.026411
H      -2.143335    1.841446    0.205059
H      -1.235556    4.161889   -0.852071
H      -1.173202    4.222392    0.909532
H       1.247687    4.477536   -0.560990
H       2.330636    3.425384    1.215162
H       2.072822    1.943698   -0.596106
