23

C       0.079494    1.488844    0.067174
C      -0.070640   -0.030609    0.174098
C      -1.478545   -0.521081   -0.186456
C      -1.621033   -2.027402   -0.067890
O      -1.377892   -2.539408    1.280883
C      -2.598119   -3.297619    1.231216
C      -2.571645   -4.678343    1.799519
C      -3.767677   -2.366202    1.157319
C      -2.990369   -2.703087   -0.104982
H       1.091983    1.809108    0.332221
H      -0.124504    1.838277   -0.951421
H      -0.618059    2.003691    0.737274
H       0.662173   -0.519658   -0.481556
H       0.162598   -0.359899    1.192896
H      -2.217389   -0.029284    0.457175
H      -1.721965   -0.237400   -1.220148
H      -0.923388   -2.524150   -0.757386
H      -2.388274   -4.643950    2.879642
H      -3.530139   -5.179489    1.636468
H      -1.778918   -5.277620    1.340751
H      -4.745212   -2.836324    1.210245
H      -3.709566   -1.381982    1.612880
H      -3.448233   -3.157908   -0.973576
