21

C      -0.018896    1.488322    0.005765
C      -0.002823   -0.017501   -0.054917
C       0.562401   -0.821359   -1.256188
C      -0.313458   -1.975916   -0.716506
C       0.141146   -2.250113    0.734312
C       0.373311   -0.819201    1.217374
C      -0.986828   -1.464161    1.365274
C      -1.307971   -0.930522   -0.067828
C      -2.640468   -0.532274   -0.627002
H       0.998210    1.890560    0.090401
H      -0.472147    1.923108   -0.891815
H      -0.585215    1.843102    0.874853
H       0.187667   -0.436180   -2.211135
H       1.645145   -0.972271   -1.320289
H      -0.641854   -2.811762   -1.334494
H       0.684639   -3.097891    1.130625
H       1.094258   -0.564582    1.984375
H      -1.591907   -1.661242    2.241079
H      -3.080372    0.297319   -0.060580
H      -2.554262   -0.212600   -1.672156
H      -3.349788   -1.367775   -0.594277
