20

O       0.214295    1.378454    0.096702
C       0.061580   -0.012951    0.039039
C      -0.457765   -0.694111    1.278956
C      -0.856888    0.137848    2.496782
C      -2.343943    0.525322    2.494669
C      -2.741305    1.176005    1.165344
C      -2.590296    0.186482   -0.005964
C      -1.310902   -0.638700    0.016815
H      -0.054680    1.742998   -0.752629
H       0.852494   -0.520724   -0.513551
H       0.000621   -1.652012    1.503699
H      -0.621699   -0.425883    3.404905
H      -0.252438    1.051252    2.527762
H      -2.959318   -0.370049    2.659830
H      -2.549273    1.206554    3.328070
H      -3.779116    1.525563    1.203974
H      -2.110845    2.055186    0.997701
H      -3.432768   -0.516422    0.027720
H      -2.683647    0.717812   -0.963119
H      -1.377370   -1.562283   -0.553016
