18

O       0.213423    0.114960   -0.363996
C       0.210021    1.297557   -0.111029
N       1.269956    1.985022    0.434302
C       2.656899    1.938428    0.030315
C       3.026545    1.277130   -1.284067
C       2.326144    1.858320   -2.480761
C       1.657188    3.009651   -2.481330
C       1.514330    3.904910   -1.280083
C       1.880645    3.235938    0.031743
H      -0.689712    1.935533   -0.213260
H       3.354131    1.762939    0.847341
H       4.114568    1.360254   -1.415906
H       2.807817    0.204823   -1.216329
H       2.384381    1.274686   -3.395488
H       1.183209    3.354871   -3.396215
H       2.160321    4.787804   -1.395194
H       0.493640    4.306598   -1.223724
H       2.051762    3.923751    0.858319
