19

C       0.084504    1.075519   -0.492032
C       1.492516    1.417604    0.030945
C       1.396460    0.056583    0.756754
O       0.075584   -0.184385    0.218188
C       2.380012   -1.026203    0.341762
C       1.918468   -2.450485    0.749331
O       2.114828   -3.226217   -0.424350
C       1.919314   -2.324986   -1.481796
O       2.503184   -1.100073   -1.079185
H      -0.723374    1.734182   -0.152077
H       0.000079    0.930387   -1.574551
H       2.268492    1.464653   -0.732599
H       1.554617    2.290416    0.681726
H       1.373320    0.118942    1.855132
H       3.369090   -0.784460    0.753313
H       2.516294   -2.884580    1.553181
H       0.859920   -2.443344    1.041782
H       2.438255   -2.697877   -2.369626
H       0.845304   -2.182675   -1.685583
