10

O      -0.155395   -0.102776    0.001626
C      -0.052754    1.092478    0.006022
C       1.253154    1.881285   -0.001212
C       2.443570    1.052318   -0.015707
C       3.430843    0.370677   -0.027636
C      -1.255837    1.954507    0.019749
N      -2.187151    2.639658    0.030274
H       1.220507    2.555652   -0.869232
H       1.235425    2.546470    0.874324
H       4.303469   -0.235004   -0.037989
