19

C       0.016185    1.415883   -0.092002
N      -0.031285   -0.025992    0.079149
C      -1.229748   -0.677966    0.041746
N      -2.373957   -0.092805    0.010753
C      -3.421228   -1.114815    0.125283
C      -2.730490   -2.480956    0.135761
C      -3.356482   -3.690755    0.769484
O      -1.977630   -2.699568   -1.070796
C      -1.290670   -2.179086    0.083870
H       1.030737    1.767328    0.109476
H      -0.284079    1.731654   -1.099886
H      -0.673113    1.879716    0.616789
H       0.762280   -0.546517   -0.259014
H      -3.997338   -0.963000    1.048342
H      -4.125943   -1.033128   -0.711197
H      -4.293817   -3.947957    0.263976
H      -2.688123   -4.552623    0.700755
H      -3.584726   -3.502834    1.823530
H      -0.499638   -2.800902    0.495980
