19

C      -0.056524    1.429921    0.088074
O      -0.023602    0.011184    0.024588
C       0.615882   -0.609156    1.042868
C       0.753720   -1.970755    1.161816
C       0.297968   -3.100540    0.307659
N       1.468562   -2.115255    2.346664
C       1.715179   -0.878805    2.859060
C       2.465071   -0.643663    4.127156
N       1.203371    0.059211    2.080893
H       0.953357    1.854262    0.082051
H      -0.602922    1.756602   -0.798912
H      -0.568618    1.778258    0.991617
H       1.131300   -3.703564   -0.076597
H      -0.382901   -3.781633    0.835115
H      -0.240603   -2.696050   -0.552303
H       1.753072   -2.991508    2.751374
H       3.494991   -1.016563    4.072233
H       2.500406    0.430002    4.315930
H       1.984792   -1.128390    4.985554
