17

C       0.028555    1.526558   -0.020552
O       1.461310    1.710615   -0.052089
C       1.968948    0.374211    0.054346
C       1.112689   -0.560654   -0.818607
C       1.071717   -1.680281    0.236834
O      -0.255102   -2.219654    0.297011
C      -1.095737   -1.047865    0.208142
C      -0.031304    0.021116    0.106470
C       1.134145   -0.400513    1.089773
H      -0.399778    2.062312    0.834945
H      -0.419753    1.913002   -0.943624
H       3.056945    0.393543    0.040489
H       1.073809   -0.640202   -1.905349
H       1.798491   -2.488085    0.296451
H      -1.742771   -1.116379   -0.674485
H      -1.722748   -0.967129    1.104089
H       1.119696   -0.297800    2.175171
