18

C       0.053066    1.639797   -0.009860
C       1.571317    1.480760   -0.132995
N       2.000938    0.711959    1.063002
C       1.461897    0.000494   -0.125907
C      -0.068423    0.077740    0.041107
C      -0.691197   -0.644361    1.257613
O      -1.824658   -1.323357    0.726139
C      -1.498402   -1.561266   -0.614543
O      -0.806223   -0.416781   -1.068218
H      -0.308653    2.202511    0.854214
H      -0.412879    2.004826   -0.927060
H       2.267167    2.123712   -0.656317
H       3.016645    0.629360    1.024294
H       2.031871   -0.759834   -0.646080
H       0.029251   -1.351538    1.692606
H      -1.033268    0.033916    2.040433
H      -0.861755   -2.461354   -0.713323
H      -2.414826   -1.682137   -1.198585
