15

O       0.002401    0.002708   -0.534156
C      -0.040517    1.097158   -0.049599
C      -1.348495    1.854260    0.168405
C      -1.215010    2.962633    1.190656
O      -0.608099    2.453559    2.421745
C       0.529613    3.281075    2.218191
C       1.159086    2.987701    0.888093
O       1.125978    1.708031    0.299602
C      -0.029898    3.895310    0.938360
H      -1.673047    2.261802   -0.797200
H      -2.092668    1.112216    0.468535
H      -2.159889    3.462615    1.417487
H       1.032344    3.688215    3.087408
H       2.118915    3.454545    0.697712
H      -0.063949    4.902987    0.547254
