20

C       0.968181    1.278952   -0.087935
N       0.002921    0.188659    0.009285
C       0.039256   -0.760362   -1.108559
C       1.061904   -1.897298   -0.756855
N       2.351177   -1.892745   -1.444227
C       1.268720   -1.705571    0.784090
C       0.185106   -0.655062    1.184972
C       1.190734   -2.940497    1.549240
N       1.095154   -3.912521    2.168574
H       2.029905    0.969769   -0.099918
H       0.777154    1.849162   -1.001519
H       0.834301    1.956512    0.760914
H      -0.960836   -1.196853   -1.226710
H       0.295007   -0.257284   -2.044846
H       0.606523   -2.872476   -0.948576
H       2.229727   -2.160868   -2.415885
H       2.748187   -0.957265   -1.452163
H       2.267773   -1.283423    0.933804
H       0.469178   -0.068683    2.060939
H      -0.753730   -1.173287    1.412394
