14

C       0.000361    1.454159   -0.015806
O      -0.005207    0.030836    0.004904
C       0.578619   -0.598514   -1.014704
C       0.711865   -1.962849   -1.230717
N       1.386451   -2.126493   -2.417649
N       1.669727   -0.977030   -2.932676
N       1.179479   -0.024644   -2.081208
C       0.260168   -3.024257   -0.419998
C      -0.129717   -3.922718    0.279360
H       1.025186    1.846038   -0.005285
H      -0.537111    1.839302   -0.891468
H      -0.514954    1.772257    0.890056
H       1.300057    0.948409   -2.307218
H      -0.471704   -4.719022    0.892382
