16

C      -0.428414    0.946869   -0.413757
O       0.478685    1.389222    0.600007
C       0.473569    0.003869    0.257897
C       0.010891   -0.945410    1.332617
O      -1.361845   -0.746380    1.778133
C      -1.641156   -2.132779    1.559475
C      -1.521399   -2.492574    0.114359
C      -0.275545   -2.406850    0.976518
H      -1.476743    0.960651   -0.128248
H      -0.200129    1.283112   -1.424374
H       1.367661   -0.334735   -0.271035
H       0.680657   -0.865481    2.198845
H      -2.240997   -2.648751    2.299466
H      -1.812630   -3.508619   -0.134160
H      -1.732354   -1.753787   -0.651770
H       0.403402   -3.234834    1.125791
