15

O       0.025344    1.415527   -0.101006
C      -0.001667    0.023403   -0.032650
C      -0.446718   -0.672030    1.224220
O      -1.026943    0.169973    2.196672
C      -2.240980    0.732704    1.701715
C      -2.538320    0.038805    0.380512
O      -3.591603   -0.023478   -0.207118
C      -1.324491   -0.725237   -0.020616
O      -1.524061   -1.811784   -0.847506
H       0.531028    1.733631    0.655740
H       0.751818   -0.498589   -0.623794
H       0.084737   -1.520242    1.640272
H      -3.047924    0.551402    2.418886
H      -2.137425    1.812864    1.542003
H      -2.423807   -1.707876   -1.194057
