17

O       0.003794    0.031577    0.091078
C      -0.013647    1.225903    0.022228
C      -1.167232    2.240299    0.014891
C      -0.688518    3.090424    1.213096
O       0.764214    3.054042    1.132689
C       1.105141    2.278183   -0.032415
C       0.714545    3.080197   -1.266667
C      -0.058160    2.376956   -2.359463
C      -0.812933    3.048923   -1.240760
H      -2.172665    1.830830    0.090244
H      -1.028678    4.130939    1.156522
H      -1.000782    2.665172    2.173923
H       2.130815    1.927313    0.060214
H       1.262392    3.988936   -1.484775
H      -0.080775    2.878676   -3.320248
H      -0.038511    1.293896   -2.433413
H      -1.394840    3.939784   -1.449242
