19

C       0.920431    0.976873   -0.313134
C       0.270831   -0.389851   -0.089168
C      -1.248169   -0.298921    0.113680
O      -1.803561    0.244899   -1.079220
C      -3.171223    0.569315   -0.998099
C      -3.606647    1.103235   -2.350412
O      -4.682263    1.598887   -2.555460
C      -1.834529   -1.606010    0.437218
C      -2.311782   -2.678723    0.695363
H       1.997637    0.870858   -0.469909
H       0.493091    1.471584   -1.188290
H       0.772400    1.632436    0.552382
H       0.455359   -1.050289   -0.943099
H       0.696826   -0.880896    0.791893
H      -1.455176    0.390540    0.950832
H      -3.785207   -0.312769   -0.755204
H      -3.372060    1.330498   -0.227053
H      -2.837439    0.985771   -3.145292
H      -2.732637   -3.626005    0.928174
