15

N      -0.059633    1.168434    0.997224
C      -0.080718    0.105277    0.329760
C      -1.182448   -0.694181   -0.355608
C      -0.067386   -1.726048   -0.763521
C       0.163039   -1.940067   -2.180292
C       0.352021   -2.125858   -3.352140
N       0.900975   -0.830399   -0.082236
C       2.258353   -0.872728    0.084211
O       2.885141   -0.035440    0.693819
H       0.891918    1.389123    1.295411
H      -1.951163   -1.089855    0.308881
H      -1.646198   -0.186829   -1.201651
H      -0.167367   -2.684911   -0.244262
H       0.519629   -2.285763   -4.389122
H       2.716012   -1.754941   -0.401953
