17

C      -0.047548    1.503661    0.057030
C      -0.036293    0.011716   -0.017101
C       0.038012   -0.773443   -1.096080
C       0.026118   -2.251856   -0.773034
C       0.016832   -2.276841    0.750517
N       1.196264   -1.659258    1.371591
C      -0.057428   -0.851786    1.216610
C      -0.778392   -0.458433    2.393432
N      -1.349749   -0.120563    3.341605
H       0.832802    1.877596    0.593964
H      -0.055394    1.947973   -0.941114
H      -0.926298    1.867082    0.602839
H       0.135085   -0.405573   -2.111517
H      -0.859059   -2.754589   -1.182780
H       0.905442   -2.771066   -1.172047
H      -0.501904   -3.063896    1.286215
H       1.262474   -1.980071    2.337430
