21

C       2.526351    1.330531    0.268549
C       2.484314   -0.181830    0.382736
O       2.097006   -0.701319   -0.899278
C       1.984697   -2.040509   -1.001995
N       2.194102   -2.805238   -0.011567
C       1.605095   -2.410112   -2.426835
C       1.181374   -3.848965   -2.585285
C       1.479128   -4.602344   -3.826136
N       2.186431   -4.930612   -2.574875
H       3.248504    1.646371   -0.489966
H       1.545225    1.729092   -0.005375
H       2.820414    1.767902    1.227330
H       3.457338   -0.601487    0.659485
H       1.764904   -0.518189    1.136390
H       2.071347   -3.781010   -0.274194
H       0.805729   -1.734097   -2.752381
H       2.463504   -2.191737   -3.076456
H       0.277296   -4.113889   -2.040082
H       0.792563   -5.366808   -4.177721
H       2.026079   -4.089942   -4.613719
H       3.120302   -4.525968   -2.596743
