14

O      -0.014907   -0.005891    0.001122
C       0.000873    1.193117   -0.008950
N      -1.014015    2.143232    0.020018
C      -0.121389    3.297284    0.105307
C       0.440280    3.695015    1.491814
C       0.641099    2.542624    2.386931
N       1.645361    2.775342    1.330903
C       1.067676    2.325761   -0.010809
H      -1.983794    2.031464    0.285073
H      -0.313663    4.105109   -0.598743
H       0.569312    4.722858    1.814878
H       1.039573    2.753862    3.374497
H      -0.011624    1.676047    2.343321
H       1.814389    2.351994   -0.800286
