18

C      -0.025514    1.632348   -0.124505
C       0.037170    0.118007    0.029271
O      -1.276595   -0.336598    0.289030
C       0.613350   -0.555805   -1.230268
C       0.721805   -2.064184   -1.108112
O       0.140796   -2.707649   -0.266939
C       1.636510   -2.741044   -2.145404
C       1.578833   -4.196857   -2.125187
N       1.544091   -5.350586   -2.127038
H       0.969114    2.055753   -0.294097
H      -0.671501    1.903666   -0.965685
H      -0.444637    2.077029    0.781395
H       0.701880   -0.127619    0.874357
H      -1.208624   -1.289358    0.434815
H      -0.046401   -0.345679   -2.085082
H       1.595538   -0.140983   -1.490752
H       1.382490   -2.369905   -3.145654
H       2.666112   -2.410436   -1.956985
