22

C      -0.265603    1.399274   -0.171396
O      -0.010361    0.015960   -0.063745
C       0.725273   -0.623191   -1.123696
C       0.020971   -0.464751   -2.477376
C       2.168555   -0.106124   -1.184173
C       0.742874   -2.098260   -0.678207
N      -0.591448   -2.617216   -0.454899
C      -1.075107   -3.732106   -1.059148
O      -0.456331   -4.446302   -1.821415
H       0.654565    1.994773   -0.244330
H      -0.908552    1.645985   -1.027046
H      -0.787017    1.688753    0.744809
H       0.024932    0.575576   -2.814097
H       0.532658   -1.059906   -3.239197
H      -1.014985   -0.807334   -2.417408
H       2.634685   -0.156894   -0.195837
H       2.759951   -0.712319   -1.877336
H       2.214134    0.928311   -1.535455
H       1.210990   -2.728626   -1.436319
H       1.331935   -2.171701    0.244460
H      -1.199086   -2.063882    0.128425
H      -2.126722   -3.929261   -0.768999
