18

O      -0.344258    0.652123    0.861361
C       0.241430    0.944997   -0.151961
C       1.430517    1.832283   -0.202180
N       2.278118    1.682550   -1.417702
C       1.535577    2.906415   -1.247691
C       0.529535    3.413949   -2.304240
C       1.122684    4.821050   -2.120685
C       1.011711    5.252516   -0.688487
C       2.111774    4.294273   -1.070098
H      -0.078709    0.572126   -1.150457
H       1.900534    2.032275    0.757644
H       3.257072    1.805722   -1.168132
H       0.745873    2.971909   -3.279268
H      -0.537681    3.307655   -2.085931
H       1.311390    5.525090   -2.920785
H       1.339518    6.265416   -0.477371
H       0.182612    4.913571   -0.071931
H       3.161752    4.524030   -0.927904
