23

C      -0.736616    1.793127    0.094588
O      -0.580007    0.538217    0.717576
C      -1.247056   -0.501975    0.054110
C      -0.664260   -1.077948   -1.265992
C      -1.028198   -2.495260   -0.739121
C      -0.121012   -3.674241   -1.053395
C      -1.099682   -1.907684    0.702296
C       0.168058   -2.055384    1.537099
O      -2.229326   -2.397437    1.402594
H      -0.201545    2.528461    0.700725
H      -0.319146    1.802590   -0.923281
H      -1.796820    2.085694    0.033540
H      -2.316789   -0.268520   -0.060628
H      -1.108033   -0.757859   -2.210715
H       0.419297   -0.927530   -1.309577
H      -2.057017   -2.735475   -1.027124
H       0.921811   -3.466056   -0.792833
H      -0.433339   -4.570249   -0.506134
H      -0.152128   -3.912088   -2.122303
H       1.057707   -1.718364    0.999534
H       0.094571   -1.442258    2.441840
H       0.305739   -3.100563    1.828658
H      -2.198637   -2.050949    2.301133
