21

C       0.490527    1.433621   -0.109449
C      -0.045785    0.021512    0.109883
O       0.154884   -0.803665   -1.046083
C       1.310867   -1.595373   -0.841699
C       1.313803   -1.958890    0.652779
C       2.694120   -1.983337    1.323191
C       2.907922   -0.504670    1.669360
O       1.618606    0.003078    1.995573
C       0.614867   -0.736957    1.300849
H       1.568323    1.431191   -0.293242
H      -0.005999    1.880880   -0.974831
H       0.305395    2.058212    0.768534
H      -1.131136    0.068806    0.254275
H       1.242259   -2.465231   -1.500994
H       2.227943   -1.043171   -1.108450
H       0.748160   -2.877905    0.817236
H       2.667248   -2.586968    2.235321
H       3.480028   -2.383336    0.675663
H       3.561532   -0.345173    2.531931
H       3.337224    0.042348    0.814984
H      -0.140500   -1.016545    2.041447
