19

C      -0.036109    1.546501    0.058995
C       0.016821    0.037086    0.020847
C       0.981497   -0.775854   -0.887844
N       0.770291   -1.926443    0.081459
C       0.654572   -0.839360    1.134756
C      -0.688909   -2.189205   -0.140170
C      -1.297240   -0.735813   -0.214733
C      -0.917430   -2.988220   -1.342710
N      -1.121226   -3.604909   -2.298577
H       0.957020    1.972821    0.234762
H      -0.412420    1.952553   -0.886334
H      -0.698407    1.899977    0.857055
H       0.701374   -0.983726   -1.924257
H       2.020193   -0.442788   -0.836382
H       1.653400   -0.515291    1.434691
H       0.062461   -1.104991    2.016576
H      -1.075308   -2.749209    0.715899
H      -2.042782   -0.561620    0.565545
H      -1.750311   -0.516471   -1.184287
