20

C       0.012407    0.903395   -0.923020
C       0.062618    0.064847    0.338900
O       1.022836    0.056374    1.073915
C      -1.153984   -0.817861    0.629968
C      -0.896395   -2.216064    0.121153
C      -1.329721   -2.710384   -1.203416
N      -1.994392   -3.261258   -0.004421
C      -1.023932   -4.274510    0.550334
C       0.077218   -3.204697    0.765907
H       0.970763    1.397408   -1.086877
H      -0.241952    0.278626   -1.786646
H      -0.779272    1.657072   -0.835134
H      -1.299813   -0.842528    1.714687
H      -2.059232   -0.420033    0.161028
H      -1.986454   -2.076652   -1.792583
H      -0.678440   -3.356282   -1.790292
H      -1.418381   -4.699775    1.474860
H      -0.801533   -5.087574   -0.148839
H       1.039420   -3.340746    0.265113
H       0.262701   -2.987934    1.819060
