14

C       0.100990    1.383706   -0.036941
N      -0.133523   -0.035391    0.157661
C       0.568819   -0.700415    1.129354
N       1.222670   -0.085574    2.103171
N       1.691659   -1.163920    2.834058
C       1.307254   -2.302593    2.245913
O       1.642943   -3.494318    2.751204
N       0.595513   -2.075568    1.165061
H       1.137430    1.617943   -0.320830
H      -0.573395    1.750241   -0.814152
H      -0.115838    1.917797    0.891615
H      -0.266133   -0.586878   -0.675646
H       2.243534   -1.026341    3.661823
H       1.249213   -4.159843    2.173076
