19

O      -0.142531   -0.037123    0.220286
C      -0.043991    1.161234    0.096031
C      -1.207736    2.165567    0.052193
C      -0.556501    3.564595   -0.048314
C       0.925113    3.254130   -0.114780
C       1.204784    1.948595   -0.042634
C      -1.025819    4.395866   -1.230151
C      -2.248053    5.269997   -1.111640
C      -0.879093    5.896675   -1.218140
H      -1.836859    1.944582   -0.815961
H      -1.836936    2.039775    0.937424
H      -0.754374    4.146678    0.863207
H       1.655946    4.049466   -0.222232
H       2.182779    1.484991   -0.068814
H      -0.877160    3.909755   -2.191692
H      -2.916006    5.341044   -1.962580
H      -2.749595    5.310848   -0.150124
H      -0.466183    6.359685   -0.327383
H      -0.610387    6.397914   -2.141179
