21

O       0.038337    1.263036   -0.669322
C      -0.086125    0.027264    0.006219
C      -1.541166   -0.403517    0.106893
O      -2.024310   -0.513040   -1.222937
C      -3.395547   -0.805309   -1.314969
C      -4.424627    0.321346   -1.006761
C      -5.213656   -0.151294   -2.259762
O      -5.859465    0.786394   -3.079449
C      -3.929355   -0.868925   -2.759226
H      -0.473701    1.165066   -1.480645
H       0.488118   -0.766979   -0.496963
H       0.331207    0.161096    1.009551
H      -1.630034   -1.366613    0.635632
H      -2.117646    0.351083    0.662943
H      -3.623771   -1.720731   -0.749539
H      -4.935887    0.335454   -0.042289
H      -3.962894    1.298626   -1.188673
H      -5.985789   -0.875625   -1.985290
H      -5.211567    1.447830   -3.344458
H      -3.335846   -0.200494   -3.392786
H      -4.019968   -1.841149   -3.246751
