19

O       0.207410    1.418814    0.022135
C       0.036928    0.025939   -0.012085
C       0.171217   -0.765925    1.327982
C      -1.315261   -0.382813    1.600172
C      -1.430897   -0.522358    0.052638
C      -1.164577   -2.042772   -0.156109
C       0.034975   -2.217083    0.832011
C      -2.389123   -2.865938    0.158872
O      -2.582644   -3.458921    1.191584
H      -0.226509    1.774933    0.803919
H       0.645985   -0.320844   -0.852877
H       0.969145   -0.547675    2.038270
H      -1.908649   -1.053650    2.224923
H      -1.454782    0.643558    1.948592
H      -2.235972   -0.065011   -0.523628
H      -0.894056   -2.230860   -1.202065
H       0.935054   -2.575389    0.325420
H      -0.220485   -2.914796    1.632426
H      -3.160325   -2.866906   -0.645720
