23

C       0.226050    1.497227    0.159044
C       0.035771   -0.003144   -0.029108
C       0.752712   -0.590631   -1.260777
C       1.243533   -1.972119   -0.778777
C       0.134488   -3.032268   -0.880960
C       2.493024   -2.424307   -1.529956
O       2.976862   -3.611738   -0.915508
C       1.545979   -1.641617    0.696553
O       0.550691   -0.712706    1.106966
H       1.290370    1.747155    0.223006
H      -0.209724    2.050692   -0.680140
H      -0.259945    1.831723    1.079874
H      -1.041502   -0.217409   -0.085217
H       0.096022   -0.650294   -2.133014
H       1.607878    0.041615   -1.531383
H      -0.210877   -3.138526   -1.915579
H       0.506999   -4.003375   -0.546575
H      -0.725804   -2.761132   -0.262354
H       2.247804   -2.597571   -2.590508
H       3.251561   -1.625703   -1.491247
H       3.743809   -3.918034   -1.407458
H       1.493801   -2.514533    1.352754
H       2.553108   -1.204199    0.794113
