17

O       0.023393   -0.043939   -0.255149
C       0.016169    1.160419   -0.073151
N      -1.141978    1.860202    0.135349
C      -1.320270    3.280573    0.191244
C      -0.954532    4.084435    1.416651
C      -0.086869    4.144313    0.178163
C       1.245566    3.447267    0.137120
N       1.589240    2.589169    1.271638
C       1.283687    1.966072   -0.039594
H      -1.964321    1.276331    0.188085
H      -2.173714    3.619001   -0.389493
H      -1.562178    4.948324    1.661786
H      -0.542152    3.536751    2.255452
H      -0.137269    5.041154   -0.429282
H       2.047069    4.013668   -0.329543
H       2.593822    2.581509    1.424920
H       2.095038    1.501962   -0.589819
