20

C       0.943136   -0.532310    0.972411
O       0.126673   -0.433344   -0.179068
C      -1.244553   -0.810922   -0.042561
C      -1.384969   -2.319649    0.240979
C      -1.912355   -0.028697    1.011451
C      -2.472153    0.601317    1.868946
C      -1.899470   -0.480281   -1.390855
C      -1.497272    0.714637   -2.161075
N      -1.139289   -0.640758   -2.633278
H       1.907381   -0.096819    0.700806
H       0.520364    0.027070    1.815885
H       1.103816   -1.573845    1.280389
H      -0.967152   -2.585776    1.214357
H      -2.440652   -2.602458    0.242147
H      -0.869391   -2.884855   -0.540340
H      -2.968130    1.164536    2.620867
H      -2.930445   -0.821120   -1.445111
H      -2.230389    1.235632   -2.769867
H      -0.707983    1.332609   -1.746406
H      -0.165862   -0.808249   -2.385219
