17

C      -0.078367    1.455259    0.033912
C      -0.029309   -0.027851   -0.030436
C      -0.003178   -0.910305   -1.031811
C       0.052274   -2.248291   -0.278340
C      -1.055163   -2.055995    0.794481
C       0.016931   -0.986665    1.202020
O       1.038883   -1.958671    0.772827
C       0.153219   -0.444726    2.527382
C       0.242136    0.026553    3.629530
H       0.788533    1.854164    0.574342
H      -0.095711    1.895898   -0.966352
H      -0.966259    1.800603    0.577894
H      -0.016721   -0.756278   -2.100837
H       0.225326   -3.179603   -0.813570
H      -2.041097   -1.707072    0.482461
H      -1.107577   -2.876396    1.513151
H       0.327008    0.434488    4.606546
