21

C       0.013556    1.530755   -0.040008
C       0.040951    0.017389   -0.000517
C       0.464785   -0.689067   -1.294740
C       0.393460   -2.174071   -0.853060
O       1.652372   -2.835792   -0.818562
C      -0.092295   -1.988036    0.574083
C       0.656417   -0.773928    1.213224
C      -0.612571   -0.481394    2.050301
C      -1.130773   -0.824867    0.632609
H       1.008767    1.928430   -0.270352
H      -0.667111    1.885664   -0.822776
H      -0.309429    1.975107    0.905322
H      -0.210066   -0.454769   -2.126220
H       1.483111   -0.422373   -1.599143
H      -0.322820   -2.751464   -1.456428
H       1.965500   -2.926510   -1.723736
H      -0.259622   -2.881030    1.177839
H       1.697035   -0.757568    1.541196
H      -0.847840   -1.202594    2.838031
H      -0.761371    0.538684    2.410907
H      -2.167476   -0.858984    0.287584
