19

C       0.075902    1.445825    0.261344
C      -0.061425   -0.022884   -0.162938
C      -1.468844   -0.525845   -0.124037
C      -2.760923   -0.110691   -0.902762
C      -3.617994   -0.502754    0.289849
C      -3.302043   -1.529887   -0.788662
C      -2.005497   -1.933230    0.002956
O      -1.268962   -3.086825    0.053968
C      -2.347002   -0.911612    1.086803
H       1.117991    1.775705    0.206426
H      -0.516443    2.100724   -0.386456
H      -0.274156    1.591462    1.288245
H       0.342635   -0.151410   -1.176552
H       0.551171   -0.659320    0.487834
H      -2.937041    0.626379   -1.676418
H      -4.580333   -0.122646    0.607636
H      -3.969133   -2.065199   -1.451843
H      -1.723289   -3.716268    0.626483
H      -2.093520   -0.892729    2.139017
