19

O       0.421875    1.298353    1.001355
C       0.053011    0.014331    0.505836
C       0.427381   -0.147268   -0.987249
C       1.832703   -0.800850   -0.934557
O       2.179866   -0.903534    0.451447
C       0.948838   -1.061470    1.143266
C      -1.411295   -0.148994    0.848005
C      -2.500632    0.164322   -0.080559
O      -2.121713   -1.192179    0.181968
H       1.386652    1.311383    1.031418
H      -0.289531   -0.798042   -1.492517
H       0.430057    0.828565   -1.475758
H       1.818478   -1.801205   -1.389662
H       2.611569   -0.212657   -1.426031
H       1.124002   -0.891954    2.208244
H       0.524996   -2.066958    0.992561
H      -1.617527   -0.069917    1.916192
H      -3.471598    0.459251    0.312803
H      -2.271510    0.526870   -1.080291
