15

O      -0.138998    1.390220    0.026027
C       0.057676    0.037797   -0.008263
C       0.070489   -0.892675   -1.181985
C       1.264519   -1.782531   -1.071988
C       1.751090   -1.727001    0.173680
C       0.857252   -0.857796    1.021024
C      -0.515140   -1.599762    1.165834
O      -1.006904   -2.200431    2.078518
C      -1.050171   -1.021243   -0.097501
H       0.678643    1.826257   -0.242674
H      -0.312642   -0.549186   -2.136460
H       1.645362   -2.374986   -1.893372
H       2.583094   -2.292509    0.571712
H       1.256012   -0.421271    1.935234
H      -2.088719   -0.919992   -0.383243
