20

C       0.057294    1.570034   -0.000816
C      -0.020127    0.045137    0.014432
O       0.713227   -0.525145    1.099021
C      -1.434635   -0.491896    0.021338
C      -1.713712   -1.985783   -0.258751
C      -2.996682   -1.469634   -0.879822
C      -3.475275   -0.306902   -0.072353
C      -2.500762   -0.073346    1.066304
N      -2.428069   -0.099367   -1.131381
H       1.099152    1.890623   -0.082098
H      -0.508278    1.973616   -0.845520
H      -0.358582    1.998070    0.919176
H       0.473253   -0.339826   -0.886543
H       0.381794   -0.129537    1.912925
H      -1.033077   -2.377645   -1.019356
H      -1.759883   -2.676090    0.588911
H      -3.628582   -1.952280   -1.617079
H      -4.472348    0.102977   -0.189076
H      -2.591701   -0.665027    1.983531
H      -2.441900    0.989826    1.312848
