20

C      -0.117781    1.511609    0.069040
C       0.010804   -0.016875    0.045133
C       0.687784   -0.505198   -1.242200
C       0.780048   -0.534991    1.255900
O       0.047174   -0.181383    2.444722
C       0.613613   -0.538048    3.616429
C      -0.249030   -0.106301    4.778784
O       1.665478   -1.119842    3.700537
H       0.868951    1.986120    0.003620
H      -0.713814    1.867043   -0.777418
H      -0.595609    1.852932    0.990680
H      -0.997543   -0.449603    0.092600
H       1.708260   -0.112836   -1.324315
H       0.745536   -1.598047   -1.278934
H       0.132955   -0.168459   -2.123062
H       0.897099   -1.623263    1.223480
H       1.783783   -0.097884    1.311297
H      -1.250156   -0.536284    4.685665
H       0.211321   -0.429330    5.711591
H      -0.361736    0.981757    4.777070
