14

O       0.297723    1.082581    0.428283
C       0.207259   -0.238282   -0.011205
C      -1.246561   -0.833828   -0.203621
N      -0.810132   -1.197850   -1.573779
C       0.346336   -0.439794   -1.518206
N       1.190925    0.062792   -2.313987
C      -1.679604   -1.931417    0.639041
C      -2.036387   -2.830478    1.352304
H       0.736646    1.576403   -0.276141
H       0.831423   -0.907642    0.590892
H      -1.973877   -0.014157   -0.188892
H      -1.410001   -1.348035   -2.373117
H       0.980372   -0.135538   -3.292916
H      -2.349635   -3.626795    1.981536
