23

C       0.072237    1.284831   -0.083531
O      -0.031643   -0.123361   -0.073517
C      -1.372883   -0.628957   -0.029590
C      -1.866827   -0.740995   -1.477665
O      -1.040987   -1.606447   -2.233378
C      -1.320476   -1.964181    0.735107
C      -0.739040   -1.774276    2.141328
C      -2.700507   -2.641887    0.804152
O      -2.675007   -3.866522    1.523605
H       1.136963    1.528010   -0.125694
H      -0.423882    1.740908   -0.952277
H      -0.356301    1.724406    0.829052
H      -2.015964    0.077933    0.520457
H      -2.884030   -1.140328   -1.522373
H      -1.900353    0.266670   -1.923121
H      -0.136501   -1.327492   -2.041577
H      -0.658937   -2.626828    0.160358
H      -1.348350   -1.069907    2.722060
H      -0.735646   -2.724923    2.678440
H       0.278464   -1.383271    2.093488
H      -3.406577   -2.000213    1.346127
H      -3.105795   -2.800587   -0.204204
H      -2.134878   -4.486004    1.022090
