20

C       0.075058    1.525258   -0.165088
C      -0.022170    0.021460    0.010608
C      -1.313802   -0.568570   -0.526990
C       1.233310   -0.809146   -0.121262
C       0.571939   -0.651307    1.234272
C       1.252616    0.097869    2.366425
C       2.242138   -0.789712    3.093669
O       2.258210   -0.975877    4.283096
H       1.028738    1.930208    0.182756
H      -0.021830    1.790421   -1.224257
H      -0.726280    2.040608    0.377564
H      -1.420602   -0.366087   -1.599290
H      -1.348319   -1.653538   -0.388017
H      -2.185822   -0.138375   -0.020344
H       1.176242   -1.772007   -0.618200
H       2.169020   -0.283082   -0.286777
H       0.014528   -1.519635    1.578896
H       1.818373    0.950687    1.968801
H       0.534361    0.482488    3.097438
H       2.981712   -1.287784    2.424443
