17

O      -0.492658    1.053618    0.194743
C       0.023151   -0.268607   -0.009605
C       0.785968   -0.374782   -1.249243
C       1.386950   -0.397812   -2.288430
C       0.802594   -0.718023    1.213471
N       1.894958   -1.377696    1.199206
C       2.224369   -1.638466    2.613608
C       1.280660   -0.722826    3.442824
N       0.234456   -0.442042    2.450753
H       0.221146    1.668934   -0.009652
H      -0.871581   -0.901745   -0.075913
H       1.929942   -0.440015   -3.200270
H       2.040698   -2.698577    2.831610
H       3.283510   -1.446722    2.805865
H       0.872453   -1.214561    4.329631
H       1.788373    0.197884    3.763679
H      -0.288507    0.419818    2.514585
