18

C      -0.028233    1.598508    0.023800
C       0.027948    0.091538    0.056786
C      -1.291399   -0.735706    0.235630
C      -0.625979   -1.549193    1.388944
O      -0.486093   -2.942327    1.244403
C       0.710823   -0.802675    1.159333
N       1.547518   -1.366272    0.103011
C       0.946821   -0.664453   -0.929334
O       1.079733   -0.700478   -2.122845
H       0.971385    2.037707    0.103528
H      -0.464368    1.935985   -0.922648
H      -0.642990    1.996015    0.838448
H      -2.140603   -0.129802    0.561950
H      -1.586516   -1.319770   -0.639166
H      -1.059956   -1.286737    2.364103
H      -1.359913   -3.344134    1.279997
H       1.254707   -0.420997    2.024334
H       1.939452   -2.297867    0.061663
