16

C       0.251965    1.492268    0.264924
C      -0.135503    0.034625   -0.033163
O      -1.527438   -0.092530   -0.190123
C       0.609909   -0.475240   -1.249766
N      -0.121855   -0.791313   -2.321944
C       0.571369   -1.226942   -3.374014
N       1.892818   -1.367647   -3.426892
C       2.518597   -1.022721   -2.296879
N       1.942826   -0.572546   -1.186897
H       1.326804    1.580743    0.441007
H      -0.030081    2.138013   -0.572479
H      -0.287666    1.827293    1.153798
H       0.190483   -0.587064    0.814774
H      -1.677624   -0.350306   -1.111619
H       0.005096   -1.491617   -4.264321
H       3.602041   -1.120000   -2.286698
