21

C      -0.210916    1.573255    0.104491
C      -0.032070    0.076507    0.002278
O      -1.151287   -0.657441    0.448513
C       0.636902   -0.591566   -1.170645
C       1.292929    0.203322   -2.296452
C       2.742481    0.558133   -1.950297
O       2.840798    1.123868   -0.651927
C       2.609640    0.161159    0.367099
C       1.305763   -0.599003    0.203389
H       0.666046    2.111453   -0.257435
H      -1.091121    1.889343   -0.465384
H      -0.370314    1.865122    1.150520
H      -1.249750   -0.493724    1.393317
H       0.158342   -1.520452   -1.460805
H       1.280044   -0.384132   -3.220439
H       0.734030    1.122808   -2.503698
H       3.378457   -0.340725   -2.012369
H       3.144254    1.304713   -2.641433
H       3.441895   -0.563807    0.377989
H       2.641777    0.715384    1.311709
H       1.264553   -1.538161    0.747590
