19

O       0.044861    1.470977   -0.459489
C       0.141156    0.070350   -0.312065
C      -1.167916   -0.515823    0.216714
O      -2.222211   -0.071826   -0.659435
C      -2.829110   -1.225543   -1.217741
O      -1.895025   -2.270115   -1.114531
C      -1.262578   -2.032698    0.123750
C      -0.242212   -3.016370    0.577889
C      -1.585668   -2.932029    1.286181
H      -0.765508    1.624107   -0.961080
H       0.391974   -0.427508   -1.262139
H       0.954245   -0.122230    0.396131
H      -1.369261   -0.141208    1.227098
H      -3.750857   -1.465600   -0.660809
H      -3.055600   -1.052935   -2.273853
H      -0.068549   -3.869973   -0.067372
H       0.639885   -2.650147    1.091660
H      -1.618229   -2.504298    2.282818
H      -2.292415   -3.733532    1.103750
