15

C       0.133353    1.541843   -0.020047
O       1.225703    0.622553    0.008647
C      -0.110536    0.090711    0.002196
C      -0.584604   -0.689580    1.235099
C      -1.485490   -1.824867    0.677660
C      -1.299767   -1.733814   -0.819450
C      -0.557174   -0.688504   -1.181253
H      -0.017822    2.121733    0.890901
H       0.015267    2.103680   -0.947045
H       0.294322   -1.094961    1.744208
H      -1.110451   -0.052874    1.950549
H      -1.208830   -2.811879    1.066231
H      -2.538654   -1.677424    0.949067
H      -1.750368   -2.445897   -1.502039
H      -0.290102   -0.402593   -2.191568
