19

C      -0.890632    0.246627   -0.163122
C       0.572425   -0.106352   -0.431296
O       1.308176    1.046775   -0.831749
C       1.330563   -0.655369    0.790305
C       0.801282   -1.966861    1.315921
C      -0.314703   -2.009436    2.327852
N       1.369580   -3.017384    0.856941
O       0.802365   -4.187522    1.390725
H      -0.967741    0.988488    0.638616
H      -1.351030    0.671621   -1.062967
H      -1.475054   -0.635387    0.114389
H       0.615629   -0.876627   -1.218010
H       0.860717    1.435465   -1.590012
H       2.370753   -0.788653    0.484307
H       1.308572    0.103059    1.581787
H      -1.164282   -2.585875    1.947265
H       0.022675   -2.526925    3.232352
H      -0.653091   -1.008102    2.597248
H       1.337135   -4.874691    0.979913
