21

C      -0.212539    1.639861    0.002434
C       0.029986    0.136009    0.015305
C       1.099843   -0.538101   -0.860325
C       2.524956   -0.387397   -0.182141
C       2.130768    0.101432    1.222979
C       0.753666   -0.598301    1.195387
C       0.052141   -0.913166    2.494324
C       1.159769   -1.727074    0.114435
O       2.585331   -1.831506    0.042256
H       0.712752    2.218524    0.070202
H      -0.712018    1.936254   -0.926449
H      -0.859521    1.944606    0.832950
H      -0.921052   -0.380285   -0.173624
H       1.052802   -0.641762   -1.943319
H       3.401083    0.015235   -0.688548
H       2.815697   -0.310207    1.967977
H       2.068736    1.184213    1.346330
H      -0.195881    0.000202    3.048312
H      -0.883049   -1.457834    2.322094
H       0.683760   -1.529624    3.143696
H       0.604785   -2.663103    0.057432
