14

N       0.062229   -1.122572   -0.296870
C       0.002093    0.026819   -0.162991
C      -0.027305    1.437918    0.003984
C      -1.125352    2.204203   -0.045838
C      -0.812167    3.651589    0.221876
C       0.734875    3.707803    0.126690
C       1.219698    2.248557    0.319242
H      -2.127612    1.830980   -0.219753
H      -1.306393    4.326766   -0.484845
H      -1.176943    3.934540    1.219691
H       1.023540    4.057285   -0.868866
H       1.177109    4.393517    0.852388
H       1.544882    2.049857    1.348373
H       2.061213    1.990367   -0.330109
