18

O      -0.024935    0.292446   -0.820406
C      -0.032437    1.303015   -0.182341
C      -1.159779    2.177670    0.406024
C      -0.061877    3.184583    0.804700
C       1.065296    2.251825    0.331099
C      -0.044232    4.651698    0.710586
C      -1.395485    5.258982    1.074241
C      -1.293839    4.453903    2.395587
N       0.080579    3.931646    2.056833
H      -1.918253    2.506311   -0.310556
H      -1.662685    1.693642    1.251040
H       1.657337    1.827969    1.148866
H       1.745284    2.633249   -0.436258
H       0.793846    5.186481    0.272542
H      -1.353449    6.337587    1.233872
H      -2.226736    5.036306    0.398030
H      -1.238732    5.077238    3.289485
H      -2.035138    3.665271    2.560724
