12

N      -0.066144    1.548092   -0.145560
C       0.017347    0.295112   -0.147305
C      -1.154230   -0.625006    0.114410
C      -2.422435    0.064919    0.319830
N      -3.447962    0.565629    0.490027
O       1.135380   -0.482155   -0.416368
C       2.361981   -0.078666    0.049240
O       3.362665   -0.627685   -0.277255
H       0.802404    2.020531   -0.391997
H      -1.243160   -1.318772   -0.730221
H      -0.927277   -1.248233    0.987849
H       2.286904    0.762412    0.757824
