18

O       0.175408    1.380564    0.042395
C       0.058743   -0.027534   -0.017097
C      -1.407146   -0.503214   -0.042486
C      -1.516705   -2.056693   -0.059505
N      -2.085925   -2.397054    1.257105
C      -2.259334   -3.658734    1.746824
O      -2.759168   -3.922417    2.820263
C      -2.483619   -1.225487    1.912537
C      -2.163699   -0.132188    1.218603
H      -0.103409    1.661216    0.919703
H       0.558803   -0.333529   -0.943131
H       0.583330   -0.514848    0.820242
H      -1.874836   -0.070123   -0.933488
H      -2.178870   -2.404554   -0.858903
H      -0.542130   -2.537956   -0.193789
H      -1.883400   -4.427257    1.043824
H      -2.987700   -1.332487    2.861388
H      -2.394042    0.881224    1.514100
