17

C      -0.302227    1.543766    0.002448
C       0.066049    0.048901    0.024594
N       0.784839   -0.319411   -1.187775
C       2.007582   -0.911341   -1.325553
O       2.476354   -1.163086   -2.420693
C       2.760200   -1.237421   -0.042747
C       2.051830   -0.874896    1.226978
C       0.851605   -0.306422    1.252569
H       0.601164    2.160072   -0.006099
H      -0.895108    1.783347   -0.886639
H      -0.897635    1.805238    0.882761
H      -0.879802   -0.518369    0.054131
H       0.334977   -0.123706   -2.071479
H       2.995682   -2.309159   -0.072369
H       3.734222   -0.735411   -0.109234
H       2.563220   -1.102642    2.158926
H       0.370847   -0.062991    2.195525
