18

O       0.207371    0.182736   -0.606805
C       0.113521    1.289958   -0.136290
N       1.103237    1.931434    0.589380
C       2.527509    1.811421    0.262287
C       1.824774    3.118312    0.215857
C       1.571294    4.159517   -0.886216
C       0.689516    4.910094    0.165188
C       1.959558    4.459174    0.954244
C       2.790913    4.924563   -0.282703
H      -0.815729    1.889941   -0.183011
H       3.180495    1.567675    1.096280
H       2.762768    1.307014   -0.671966
H       1.351306    3.979442   -1.938417
H       0.578308    5.986475    0.012872
H      -0.256710    4.442739    0.446541
H       2.182433    4.618886    2.008374
H       3.776234    4.473419   -0.419491
H       2.807691    6.001676   -0.462467
