21

C       0.181538    1.455699    0.167189
C      -0.097525   -0.041937   -0.011696
O      -1.487037   -0.291463   -0.180682
C       0.669486   -0.608269   -1.171191
O       0.183963   -0.204125   -2.471644
C       0.367445   -1.560567   -2.970343
C       0.993246   -2.007388   -1.657447
C       2.100517   -1.042380   -1.248498
C       3.119171   -0.439463   -2.189982
H       1.233568    1.634642    0.411724
H      -0.052120    1.998896   -0.754366
H      -0.441535    1.854082    0.971825
H       0.199864   -0.581898    0.895313
H      -1.684948   -0.042930   -1.092595
H      -0.602853   -2.026868   -3.170650
H       0.984116   -1.585088   -3.876015
H       0.837888   -2.964968   -1.178734
H       2.492300   -1.311074   -0.268273
H       2.636693   -0.033636   -3.082241
H       3.653445    0.383498   -1.703673
H       3.861321   -1.181651   -2.502325
