23

C      -0.347693    1.340586   -0.071662
O      -0.296855   -0.060405   -0.177529
C       0.711847   -0.509992   -1.054706
C       0.676830   -2.031176   -1.098893
C       1.753790   -2.619224   -2.020893
C       1.705857   -4.128319   -2.042692
O       0.645777   -4.742220   -2.788264
C       1.994248   -4.976001   -3.212363
C       2.396156   -4.471831   -4.575117
H       0.595543    1.757575    0.317301
H      -0.555675    1.818594   -1.042660
H      -1.154500    1.588775    0.622463
H       0.556474   -0.092219   -2.065521
H       1.702035   -0.157064   -0.713699
H       0.803430   -2.413426   -0.078837
H      -0.312419   -2.356387   -1.438281
H       1.626096   -2.226298   -3.034245
H       2.750228   -2.306884   -1.678454
H       1.860684   -4.585672   -1.061374
H       2.342439   -5.989158   -2.996282
H       2.037145   -3.457685   -4.759170
H       3.486848   -4.482083   -4.678402
H       1.981836   -5.121924   -5.352912
