22

C       0.061048    1.565378   -0.185124
C       0.012625    0.046491    0.001216
C      -1.411417   -0.517318   -0.015432
C      -1.461825   -2.047024    0.171155
C      -2.844250   -2.618889    0.166436
C      -3.620613   -3.128560    1.185196
C      -4.876702   -3.510779    0.634516
C      -4.836532   -3.225131   -0.708729
N      -3.602874   -2.684976   -0.981081
H       1.090113    1.937908   -0.169527
H      -0.385633    1.861789   -1.140873
H      -0.491402    2.079181    0.609315
H       0.604886   -0.439198   -0.786177
H       0.495871   -0.222414    0.949994
H      -2.009183   -0.044834    0.774181
H      -1.899018   -0.247738   -0.962561
H      -0.849421   -2.521238   -0.610010
H      -0.989447   -2.308799    1.124330
H      -3.312944   -3.216912    2.216574
H      -5.709473   -3.948636    1.163176
H      -5.568108   -3.361095   -1.488955
H      -3.292311   -2.388005   -1.889704
