25

C      -0.291540    1.487993   -0.057335
C       0.099583    0.003939    0.068259
C       0.771339   -0.541590   -1.159387
C       2.041697   -0.940583   -1.254953
C       2.432002   -1.373332   -2.650151
C       3.284332   -2.645649   -2.712135
C       1.050337   -1.503674   -3.339053
C       0.068393   -0.638086   -2.510320
C      -1.355395   -1.205645   -2.465855
H       0.591044    2.109088   -0.240051
H      -0.990039    1.651584   -0.884267
H      -0.773131    1.842316    0.859353
H       0.765304   -0.123842    0.929214
H      -0.805055   -0.579240    0.287810
H       2.753515   -0.926614   -0.433927
H       3.008159   -0.563622   -3.126573
H       2.765952   -3.485604   -2.236383
H       3.500409   -2.926124   -3.748856
H       4.242271   -2.508794   -2.198573
H       1.070828   -1.229608   -4.398083
H       0.727382   -2.551479   -3.283550
H       0.010541    0.371432   -2.947185
H      -1.365522   -2.199057   -2.002942
H      -2.035623   -0.563015   -1.897344
H      -1.764349   -1.304336   -3.477065
