19

C       0.495441    1.376552   -0.218751
O       0.787476   -0.001973   -0.216241
C      -0.098743   -0.749778   -1.016230
C       0.355171   -2.178213   -0.971350
C       0.526024   -3.141335    0.219825
C       0.643722   -3.958198   -1.081169
O      -0.517469   -3.195190   -1.634265
C       1.569268   -2.860617   -1.677842
O       1.659916   -2.749156   -3.056487
H       0.563389    1.804929   -1.230758
H      -0.513142    1.579847    0.173944
H       1.231144    1.865774    0.423676
H      -1.136010   -0.675201   -0.648939
H      -0.088378   -0.397269   -2.061604
H       1.414055   -3.028673    0.845290
H      -0.384181   -3.325500    0.790069
H       0.641470   -5.037231   -1.233700
H       2.559263   -2.723831   -1.239564
H       0.756717   -2.895075   -3.376026
