18

C      -0.246846    1.355668    0.026206
C       0.051798   -0.138784   -0.014691
C       0.985419   -0.537924   -1.160371
C       2.190963   -0.390311   -0.314225
C       1.223685   -0.570356    0.918077
C       1.371912   -2.085851    0.611282
C       0.190357   -2.996265    0.812104
O      -0.527815   -3.403950   -0.064376
N       1.794370   -1.751479   -0.782434
H       0.672123    1.947427   -0.047522
H      -0.900111    1.647707   -0.802707
H      -0.752686    1.627362    0.958587
H      -0.874467   -0.714916    0.083431
H       0.865016   -0.369495   -2.222510
H       3.173699    0.037495   -0.457566
H       1.325662   -0.162527    1.922215
H       2.235348   -2.509391    1.139888
H       0.010605   -3.265146    1.881443
