18

O       0.031414   -0.105355   -0.003154
C      -0.002405    1.101569    0.058871
C      -1.294917    1.898076    0.085557
C      -1.409057    2.721081    1.388253
C      -0.134378    3.497459    1.720900
C       0.950758    2.845998    2.546574
C       1.189021    3.113538    1.084097
C       1.259395    1.956604    0.096772
H      -1.283516    2.587912   -0.768864
H      -2.138542    1.214406   -0.031301
H      -2.249566    3.415010    1.291809
H      -1.664279    2.046380    2.213314
H      -0.280351    4.559333    1.891288
H       1.482791    3.443786    3.278387
H       0.791064    1.814332    2.849283
H       1.866120    3.931602    0.856885
H       2.118638    1.305644    0.283605
H       1.376079    2.362589   -0.918894
