15

O       0.408410    0.893176   -0.712070
C      -0.039094    0.034944    0.317028
C      -1.446434   -0.422515    0.089037
C      -2.233931   -0.439059   -1.030841
C      -3.477359   -0.992202   -0.623044
C      -3.363487   -1.273701    0.714572
O      -2.115563   -0.918243    1.150878
C      -4.311439   -1.844419    1.653514
O      -4.106786   -2.050989    2.829073
H      -0.133134    1.689425   -0.688128
H       0.643669   -0.823362    0.311693
H       0.033859    0.489812    1.316496
H      -1.942320   -0.107240   -2.013884
H      -4.352008   -1.164852   -1.231813
H      -5.285732   -2.085035    1.173470
