19

C       0.623484    1.404113    0.051750
O       0.172701    0.073433   -0.060081
C       0.566808   -0.549767   -1.261016
C       0.030309   -1.973716   -1.238002
C       0.717115   -2.919766   -2.256135
C       1.541110   -3.449447   -1.042207
N       0.558140   -2.815887   -0.138027
C       1.680178   -4.899680   -0.893965
N       1.801029   -6.044888   -0.796148
H       1.722655    1.466166    0.019629
H       0.220194    2.038699   -0.752317
H       0.274797    1.787006    1.013498
H       0.168745   -0.010312   -2.138155
H       1.668603   -0.549224   -1.350559
H      -1.063816   -1.944733   -1.258668
H       0.046334   -3.673437   -2.666891
H       1.291767   -2.459289   -3.060640
H       2.548099   -3.011613   -1.013062
H       0.936379   -2.305027    0.652838
