22

C      -0.941532    1.079198    0.015685
C      -0.135966   -0.220959    0.088034
C       1.077331   -0.129365    1.015708
C       0.742916   -0.153416    2.539756
C       1.104599   -1.663278    2.559776
C       1.843931   -1.472053    1.207593
N       1.834676   -2.189835    3.686917
C       1.427380   -3.261273    4.421791
O       0.417602   -3.904423    4.229055
H      -0.323784    1.904691   -0.355463
H      -1.800055    0.977514   -0.655175
H      -1.323469    1.369895    1.000143
H      -0.789265   -1.041810    0.413297
H       0.210965   -0.492103   -0.917755
H       1.704041    0.711609    0.702996
H       1.456403    0.436814    3.124113
H      -0.268780    0.121661    2.849644
H       0.222199   -2.294612    2.454428
H       1.708225   -2.247821    0.448912
H       2.917107   -1.313706    1.356451
H       2.696625   -1.738811    3.953375
H       2.140289   -3.488976    5.239795
