20

C       0.039166    1.566779    0.007079
C       0.004860    0.037782   -0.044413
C      -1.407317   -0.564583    0.071491
C      -1.416199   -2.086693   -0.117125
N      -2.097514   -0.163735    1.320422
C      -3.269398    0.602309    1.222731
O      -3.946721    0.998267    2.128474
C      -1.567783   -0.576266    2.549493
O      -2.015292   -0.339743    3.637777
H       1.061468    1.935057   -0.115720
H      -0.569392    2.004560   -0.792130
H      -0.338682    1.947619    0.960426
H       0.425742   -0.309706   -0.995456
H       0.650910   -0.379627    0.737739
H      -2.011851   -0.127927   -0.731909
H      -0.792665   -2.593956    0.625631
H      -2.431948   -2.483259   -0.035626
H      -1.025277   -2.342577   -1.106309
H      -3.504971    0.807042    0.158344
H      -0.647313   -1.171242    2.401440
