20

O      -0.169451    1.471068    0.248572
C       0.005090    0.075991    0.015064
C       0.742292   -0.586946    1.196321
C       1.416100   -1.920534    0.856793
O       0.651116   -2.737796   -0.034583
C      -0.698678   -2.869444    0.242059
N      -1.184611   -3.696697    1.064183
C      -1.532347   -1.943892   -0.601300
C      -1.417028   -0.468110   -0.171065
H       0.700199    1.869001    0.355234
H       0.583717   -0.085049   -0.909828
H       1.525464    0.090388    1.560246
H       0.036825   -0.711448    2.025877
H       2.358662   -1.754288    0.326999
H       1.644750   -2.472788    1.779118
H      -0.435443   -4.227515    1.515526
H      -1.190588   -2.050313   -1.637541
H      -2.576628   -2.257478   -0.549406
H      -1.952236   -0.319560    0.774176
H      -1.916983    0.156838   -0.917102
