16

N       0.058649    1.362884    0.181726
C      -0.037797    0.009908    0.024967
C      -1.224027   -0.652028    0.021621
C      -1.339739   -2.094798   -0.083172
O      -2.405640   -2.680383   -0.129256
C      -0.023679   -2.896281   -0.116884
C       1.137570   -2.111604   -0.676017
O       1.897494   -2.533101   -1.512911
C       1.285841   -0.704892   -0.100221
H       0.906667    1.827214   -0.097628
H      -0.780558    1.916929    0.116242
H      -2.159204   -0.105662    0.099532
H       0.211887   -3.153305    0.926292
H      -0.168742   -3.825042   -0.669724
H       1.982128   -0.145546   -0.733409
H       1.747926   -0.784212    0.894614
