20

C      -0.243334    1.347676    0.162708
O       0.217032    0.035791   -0.047184
C       0.624330   -0.600195    1.144000
C       1.064583   -2.019947    0.805895
C       1.559826   -2.757152    2.025653
N       0.540239   -3.285980    2.939416
C       1.401863   -4.238116    2.195395
C       0.778912   -5.073880    1.206051
C       0.292468   -5.791414    0.372979
H       0.538858    1.992937    0.594966
H      -0.535643    1.752817   -0.809294
H      -1.115694    1.373563    0.835299
H       1.452389   -0.038156    1.613671
H      -0.201903   -0.629358    1.873312
H       0.223990   -2.562369    0.365231
H       1.859521   -1.979389    0.051962
H       2.461590   -2.344207    2.478780
H       0.855595   -3.234053    3.904618
H       2.190193   -4.731830    2.760311
H      -0.148930   -6.419788   -0.360377
