13

C      -0.010438    1.408230   -0.027764
O       0.035670   -0.015681    0.019542
C       0.626607   -0.610006   -1.038387
C       0.763937   -1.965327   -1.233142
N       0.434474   -3.035936   -0.445567
O       1.390824   -2.154650   -2.382832
N       1.656302   -0.824749   -2.933995
N       1.189040    0.007551   -2.102268
H       0.998504    1.833244   -0.059851
H      -0.565839    1.755671   -0.905824
H      -0.518885    1.721639    0.884599
H      -0.276467   -2.833587    0.242618
H       0.275344   -3.899938   -0.943776
