11

O       0.104387    1.336104    0.106093
C       0.070377   -0.007067    0.048804
N       0.097478   -0.590336   -1.140400
C       0.061676   -1.928382   -1.144246
C      -0.000314   -2.664434    0.029862
N      -0.027412   -2.066700    1.229578
C       0.007605   -0.742894    1.244455
H       0.145672    1.648875   -0.808781
H       0.083510   -2.415731   -2.115230
H      -0.028862   -3.749274    0.013706
H      -0.013203   -0.233304    2.203214
