18

O      -0.544173    0.647874   -0.901138
C       0.036885    1.023333    0.090665
C       1.296305    1.810505    0.025188
C       1.558852    2.935580    1.002119
C       0.591848    3.303683    2.120959
C       0.510162    2.281600    3.219644
C       1.242317    1.171664    3.241845
C       2.238886    0.807851    2.177976
N       2.360294    1.727642    1.041017
H      -0.351363    0.796449    1.104024
H       1.662460    1.917748   -0.993459
H       2.086390    3.787726    0.576440
H       0.918200    4.259047    2.553020
H      -0.407421    3.504769    1.711786
H      -0.177837    2.499512    4.031941
H       1.165897    0.477387    4.074976
H       3.234958    0.750809    2.640165
H       2.039054   -0.200515    1.792544
