14

C      -0.008501    1.461364    0.009471
N      -0.050369    0.003456    0.001341
C      -1.249189   -0.667162    0.004640
C      -1.210687   -2.020730   -0.002984
O      -2.275766   -2.818908   -0.001141
C       0.087068   -2.683179   -0.014197
O       0.126739   -3.910108   -0.021032
N       1.226402   -1.879194   -0.016410
N       1.141049   -0.598640   -0.008879
H       1.040354    1.752773    0.003455
H      -0.510593    1.859825   -0.876856
H      -0.497455    1.849606    0.907615
H      -2.153896   -0.073409    0.013149
H      -1.879171   -3.717202   -0.008339
