18

C      -0.450830    1.327671   -0.202940
C      -0.317038   -0.120682   -0.151234
C      -0.208151   -1.319574   -0.096766
C      -0.089582   -2.746301   -0.053248
C      -0.263864   -3.501034    1.263501
C      -1.314315   -3.618901    0.216403
O      -2.541920   -3.017708    0.511205
C      -3.211758   -2.486344   -0.540377
N      -4.372294   -2.024762   -0.368443
H       0.165708    1.814801    0.560719
H      -0.143041    1.721003   -1.178158
H      -1.489572    1.632675   -0.035071
H       0.626280   -3.175572   -0.749468
H       0.379604   -4.351097    1.457080
H      -0.521339   -2.901053    2.127746
H      -1.397554   -4.546902   -0.344820
H      -2.642551   -2.515086   -1.477170
H      -4.730067   -1.657431   -1.247853
