22

C      -0.115332    1.585822   -0.001067
C      -0.048260    0.065881   -0.002479
C       1.176055   -0.628283   -0.611610
N       2.066748   -0.261000    0.602219
C       2.501909   -1.716746    0.696188
C       1.044372   -1.903402    0.281080
C       0.256053   -3.164047    0.031769
C       0.660824   -0.655851    1.162323
C       0.356782   -0.600170    2.630798
H       0.847910    2.015232    0.286057
H      -0.378522    1.966659   -0.994045
H      -0.876626    1.946377    0.699698
H      -1.006507   -0.384789   -0.286979
H       1.585841   -0.568002   -1.623049
H       3.279932   -1.982901   -0.028647
H       2.806214   -2.025482    1.702673
H       0.215164   -3.786224    0.933022
H      -0.773972   -2.941224   -0.267550
H       0.713102   -3.762143   -0.764516
H       1.088562   -1.169091    3.213850
H       0.371341    0.434328    2.989159
H      -0.635688   -1.017049    2.835225
