16

C      -0.004915    1.548928   -0.007345
C      -0.049551    0.020072    0.083118
N       0.596014   -0.421096    1.310692
C      -0.032217   -1.135000    2.158856
C       0.615113   -1.546428    3.398198
N       0.097518   -2.410801    4.201914
N      -1.104002   -2.892068    3.796390
N      -1.877814   -2.399871    2.812338
N      -1.393433   -1.552733    2.011753
H       1.022055    1.911780    0.091194
H      -0.405347    1.885250   -0.968711
H      -0.603103    2.002448    0.789039
H      -1.079677   -0.338876   -0.014945
H       0.531209   -0.399265   -0.749410
H       1.570325   -1.110654    3.673314
H      -1.588898   -3.484836    4.451436
