22

C      -0.077181    1.580678    0.299956
C       0.027599    0.092758    0.025628
C      -1.086569   -0.693550    0.699198
C       0.539890   -0.538703   -1.217834
C       1.727646    0.138787   -1.899104
C       1.542759    1.378004   -2.757135
O       2.826852    1.736355   -3.251873
C       2.398024    0.174635   -0.501481
N       1.300067   -0.660451    0.111716
H      -1.032195    1.963091   -0.076321
H      -0.055273    1.758850    1.381598
H       0.715911    2.176179   -0.148679
H      -2.065937   -0.397333    0.307232
H      -0.954782   -1.766489    0.541105
H      -1.082680   -0.510581    1.778955
H       0.023750   -1.396035   -1.643870
H       2.248186   -0.597433   -2.519235
H       0.846427    1.141774   -3.579557
H       1.097388    2.203446   -2.185382
H       2.736032    2.536718   -3.776938
H       3.342321   -0.368981   -0.450274
H       2.538966    1.154741   -0.037199
