19

O      -0.151289    1.402504   -0.072958
C      -0.087397    0.020867    0.000887
C      -0.416629   -0.861753   -1.171704
C      -1.246580   -0.963696    0.088516
C      -0.483908   -1.790639    1.131248
C       0.668674   -0.728644    1.106305
C       2.114596   -1.177134    0.843999
C       2.666469   -1.969657    1.936627
C       3.089837   -2.620181    2.854800
H       0.477661    1.703803   -0.737000
H      -0.900125   -0.332752   -1.987230
H       0.223486   -1.684498   -1.484086
H      -2.310824   -0.765721    0.084126
H      -0.977429   -1.856801    2.102146
H      -0.202154   -2.799432    0.811944
H       0.638592   -0.132925    2.022596
H       2.161613   -1.758339   -0.085861
H       2.742133   -0.289908    0.683122
H       3.475715   -3.195636    3.659134
