17

N       0.034875    1.464838    0.087880
C      -0.019797   -0.001569    0.015684
C      -1.476519   -0.476566   -0.034529
N      -2.130869   -0.226609   -1.316133
C      -1.410098   -0.383821   -2.354829
N      -1.952068   -0.371515   -3.632130
N      -0.033137   -0.640888   -2.338811
C       0.748172   -0.526679   -1.198981
O       1.936194   -0.764816   -1.217348
H       0.993441    1.783305   -0.021499
H      -0.507364    1.868554   -0.671116
H       0.482010   -0.402436    0.901158
H      -1.514624   -1.552771    0.191323
H      -2.038036    0.037374    0.750972
H      -2.924961   -0.097000   -3.611849
H      -1.420624    0.138460   -4.325347
H       0.434968   -0.956945   -3.177047
