24

C       2.742869   -0.282742   -0.004377
N       1.628477   -1.173098    0.281835
C       1.860848   -2.280200    1.201768
C       0.982858   -1.139838    1.600706
C       1.393885   -0.192174    2.683745
C       0.621135    1.090748    2.930206
C       0.596978   -0.007964    3.965619
C      -0.696851   -0.769725    4.189723
C       1.398790    0.206120    5.236975
H       3.467757   -0.167191    0.816705
H       3.284158   -0.672239   -0.872840
H       2.358692    0.709490   -0.261603
H       1.443482   -3.242894    0.915758
H       2.834433   -2.338860    1.689909
H      -0.091931   -1.290552    1.523738
H       2.468246   -0.116289    2.822159
H       1.178662    1.998192    3.139115
H      -0.277772    1.248716    2.341680
H      -1.300059   -0.849012    3.282280
H      -0.503412   -1.785606    4.554088
H      -1.308681   -0.260526    4.943646
H       0.816124    0.766716    5.977954
H       1.681066   -0.750321    5.693132
H       2.318040    0.767711    5.042867
