15

C       0.022286    1.379706    0.246891
N      -0.134279    0.026833   -0.298400
C      -1.446442   -0.526724   -0.059360
C      -1.582139   -2.048507   -0.336039
O      -1.884583   -2.291019    1.073583
C      -1.700859   -0.962541    1.394323
O      -1.735131   -0.466680    2.469649
C      -2.657061   -2.479390   -1.219886
N      -3.493418   -2.802103   -1.948226
H       1.029925    1.735724    0.020372
H      -0.705214    2.104991   -0.153451
H      -0.095287    1.346247    1.332361
H       0.037268    0.044850   -1.299287
H      -2.292670    0.056829   -0.459105
H      -0.635644   -2.521138   -0.607445
