16

C      -0.067160    1.525061    0.014494
C       0.135872    0.036254   -0.011510
O      -0.728059   -0.764959    0.817845
C       0.695356   -0.781076    1.064982
C       1.417374   -1.966444    0.409643
O       2.054042   -2.807197    1.008318
C       1.189545   -1.831926   -1.027910
C       0.482144   -0.701718   -1.293501
N       0.105299   -0.192484   -2.493410
H       0.804663    2.046093   -0.392968
H      -0.945564    1.821835   -0.571228
H      -0.231540    1.858709    1.041117
H       1.019881   -0.394136    2.026171
H       1.506383   -2.574966   -1.747782
H       0.192393   -0.767277   -3.316142
H      -0.625028    0.499033   -2.524273
