15

O      -0.059587    1.941135   -1.725433
C      -0.095468    1.805025   -0.528902
C      -1.377742    1.624837    0.264466
C      -1.559979    2.592816    1.406553
C      -0.730039    3.572072    1.763048
C       0.583228    3.889112    1.087155
O       1.508307    2.776171    1.070695
C       1.213238    1.723462    0.286776
O       1.921151    0.758446    0.232379
H      -2.217940    1.684814   -0.437135
H      -1.373779    0.598732    0.663714
H      -2.473836    2.449813    1.977656
H      -0.993467    4.199300    2.609171
H       0.435576    4.248958    0.061400
H       1.116150    4.667788    1.632473
