23

C      -0.311891    1.345654    0.068253
C       0.039062   -0.132619   -0.149604
C       0.902854   -0.324580   -1.397688
O       0.170362    0.129420   -2.527995
C       0.747367   -0.711915    1.062592
C       0.080609   -1.181784    2.328462
C      -1.239864   -1.912382    2.046059
C      -0.471548   -2.920459    1.131637
C       0.836483   -2.171700    1.427635
H       0.591935    1.933790    0.270888
H      -0.793469    1.762992   -0.818811
H      -0.983916    1.465870    0.923500
H      -0.892055   -0.681735   -0.330233
H       1.844165    0.239756   -1.282694
H       1.168235   -1.388599   -1.498170
H       0.731923    0.047169   -3.303810
H       1.681154   -0.192714    1.282862
H       0.371377   -0.787763    3.295500
H      -1.646366   -2.398125    2.935767
H      -2.038096   -1.322539    1.584046
H      -0.476171   -3.930615    1.546867
H      -0.777647   -2.981532    0.082182
H       1.793271   -2.650931    1.601529
