21

C       0.596004    0.287103    1.037381
O      -0.024380   -0.105587   -0.183324
C      -1.250754   -0.784418   -0.013855
C      -2.369760   -0.008012    0.643480
C      -2.764758    1.239685   -0.141725
O      -3.823136    1.871716    0.563154
C      -1.552411   -1.719362   -1.166224
C      -1.094390   -2.277922    0.163577
O       0.184927   -2.818183    0.297610
H       1.592811    0.650467    0.775898
H       0.048244    1.099103    1.531998
H       0.687097   -0.557212    1.731549
H      -3.245732   -0.659312    0.736037
H      -2.100283    0.287539    1.664159
H      -1.893626    1.904011   -0.243283
H      -3.073292    0.951494   -1.158915
H      -4.068387    2.668682    0.084456
H      -2.585535   -1.847112   -1.471846
H      -0.829376   -1.736204   -1.975184
H      -1.806386   -2.816901    0.780028
H       0.790019   -2.180890   -0.102902
