16

O       0.009259   -0.010136   -0.549515
C      -0.029662    1.086228   -0.060481
C      -1.352941    1.831826    0.116695
C      -1.639218    2.459203    1.460367
C      -0.874428    3.410434    1.987387
C       0.388150    3.870455    1.303450
C       1.412339    2.744796    1.162037
O       1.145969    1.711354    0.200091
H      -1.364292    2.613107   -0.658656
H      -2.122670    1.108923   -0.152619
H      -2.530306    2.118059    1.978245
H      -1.132472    3.853672    2.944542
H       0.170911    4.290694    0.311237
H       0.869367    4.668288    1.878387
H       2.372419    3.153560    0.833809
H       1.564292    2.264813    2.136508
