19

O       0.058584    1.375485    0.105445
C       0.033028   -0.041776    0.067504
C      -1.384634   -0.593803   -0.126610
C      -1.442076   -2.089043   -0.184912
C      -0.752508   -3.108538   -1.123095
C      -1.388910   -3.889952    0.039192
O      -0.882532   -2.858556    0.985670
C      -2.681240   -3.040280   -0.106172
O      -3.520006   -2.917281    0.990773
H      -0.394506    1.657141    0.906507
H       0.663631   -0.326682   -0.781034
H       0.481345   -0.484005    0.968161
H      -2.029748   -0.259214    0.697475
H      -1.811355   -0.184427   -1.049854
H      -1.166471   -3.241791   -2.126195
H       0.336884   -3.085739   -1.110422
H      -1.261876   -4.932328    0.331000
H      -3.286943   -3.168159   -1.006114
H      -2.922145   -2.832855    1.748971
