22

C      -0.100975    1.592511    0.246513
C       0.040723    0.091881    0.104520
N       1.304410   -0.573887   -0.252062
C       2.512393    0.204113   -0.488274
C       0.804053   -0.713371    1.094348
C       1.420506   -0.265938    2.421005
O       0.994460   -1.492367    3.046147
C       0.484483   -2.035304    1.795934
C      -0.956605   -2.488556    1.903511
H       0.712748    2.044303    0.819027
H      -0.134908    2.079411   -0.734214
H      -1.037170    1.827788    0.763730
H      -0.818662   -0.381297   -0.370951
H       2.650405    1.067369    0.179309
H       3.380369   -0.452298   -0.369661
H       2.507445    0.569209   -1.519940
H       2.514616   -0.161038    2.417507
H       0.982596    0.616908    2.903990
H       1.124776   -2.856449    1.442775
H      -1.601859   -1.663294    2.219232
H      -1.311855   -2.864963    0.938025
H      -1.045686   -3.296708    2.636177
