20

C      -0.105434    1.545626    0.074056
C       0.005412    0.044308   -0.019294
C      -0.057644   -0.572383   -1.213297
C       0.015198   -1.994144   -1.525373
C      -0.271598   -3.038834   -0.739503
C      -0.802647   -2.994657    0.668076
C      -0.121120   -2.035427    1.635180
N       1.276627   -1.676306    1.413059
C       0.228122   -0.626190    1.293504
H       0.800863    1.984971    0.511648
H      -0.265883    2.001634   -0.905688
H      -0.938075    1.842054    0.726206
H      -0.147170    0.073699   -2.085314
H       0.322584   -2.213778   -2.546375
H      -0.147757   -4.033174   -1.160137
H      -1.872532   -2.733701    0.653809
H      -0.751399   -4.002826    1.096687
H      -0.434736   -2.191105    2.668874
H       1.767486   -1.573581    2.297161
H       0.165665    0.066369    2.131624
