19

C       0.123972    1.557833   -0.128518
C       0.060951    0.045737   -0.066688
C       1.198894   -0.735836   -0.627279
N       0.985068   -0.673122    0.829814
C      -1.312830   -0.596516   -0.104589
C      -2.444360   -0.048727    0.821113
C      -3.233770    0.214059   -0.483908
O      -4.332331    0.602534   -0.773325
N      -2.163634   -0.208924   -1.242197
H       1.159887    1.899166   -0.216615
H      -0.433149    1.938869   -0.989486
H      -0.301578    2.014710    0.771620
H       1.031479   -1.714865   -1.069601
H       2.028647   -0.182843   -1.059619
H       1.640303   -0.017351    1.248302
H      -1.187795   -1.680072   -0.007607
H      -2.904008   -0.788911    1.477445
H      -2.203676    0.846808    1.394856
H      -2.106077   -0.433614   -2.225270
