21

C      -0.134318    1.408054    0.054287
C       0.034167   -0.094494    0.019836
C       0.719236   -0.730341   -1.168656
C       1.411976   -0.715326    0.176040
C       1.412707   -2.139407    0.650415
C       1.972987   -2.522977    1.983556
C       0.826890   -2.933685   -0.252258
C       0.391370   -2.190013   -1.503093
O      -0.957927   -2.435014   -1.888309
H       0.725280    1.911928   -0.399931
H      -1.028424    1.719487   -0.497301
H      -0.229973    1.775223    1.082082
H      -0.776491   -0.653391    0.484716
H       1.031811   -0.071290   -1.970344
H       2.255892   -0.066914    0.389955
H       1.479082   -1.970194    2.792685
H       1.860029   -3.592820    2.177107
H       3.040663   -2.277330    2.047189
H       0.639505   -3.995277   -0.132256
H       0.970770   -2.515886   -2.376404
H      -1.518468   -2.145745   -1.159689
