18

O       0.079768    1.302303   -0.468153
C       0.047969    0.044213    0.187044
C      -1.352049   -0.518325    0.224339
C      -2.396045    0.114165    1.154779
C      -3.397743   -0.989401    1.466202
O      -4.095452   -1.516674    0.325081
C      -2.958391   -2.239071    0.824466
C      -1.683045   -1.966748    0.044568
N      -1.806663   -1.030866   -1.081541
H      -0.267370    1.146624   -1.354661
H       0.711515   -0.681956   -0.305390
H       0.426541    0.217222    1.200258
H      -1.915041    0.436183    2.085655
H      -2.871906    0.997785    0.717112
H      -3.986559   -0.955541    2.379673
H      -3.166535   -3.231343    1.212165
H      -0.944630   -2.755960   -0.052160
H      -2.798546   -0.835911   -1.213993
