20

C      -0.035986    1.523862    0.116985
C      -0.034015    0.026602    0.012338
C       1.176604   -0.792034   -0.412030
C       0.627619   -0.998475    0.965456
O       1.414796   -0.767651    2.075850
C      -0.622157   -1.850515    0.931265
C      -0.709580   -3.345800    0.989728
N      -1.719822   -0.965886    1.427784
C      -1.256964   -0.860371    0.012163
H       0.921343    1.886483    0.506246
H      -0.200735    2.003723   -0.854985
H      -0.825431    1.858024    0.798175
H       1.101319   -1.564635   -1.173877
H       2.108378   -0.234624   -0.434864
H       0.823483   -0.474078    2.780090
H      -0.537125   -3.712243    2.008231
H      -1.694178   -3.702136    0.668098
H       0.044269   -3.804412    0.341204
H      -2.575872   -1.524455    1.422856
H      -1.937343   -1.071041   -0.806364
