17

O       0.006150   -0.084524    0.080332
C      -0.009570    1.129804    0.035866
C      -1.326190    1.905056    0.045671
C      -1.186431    3.385136    0.459044
C      -0.019837    4.027264   -0.316337
C       1.280072    3.309574    0.037096
N       1.137623    1.865459   -0.087208
C      -2.438720    4.113028    0.249540
N      -3.425345    4.687195    0.069114
H      -1.741186    1.845866   -0.967101
H      -2.015259    1.366781    0.698794
H      -0.958624    3.435833    1.532329
H      -0.217989    3.950512   -1.390791
H       0.071668    5.088542   -0.071806
H       2.080486    3.644445   -0.630980
H       1.581775    3.582806    1.060084
H       1.976780    1.303258   -0.064498
