13

O      -0.452877    0.438788    0.628696
C       0.150238    0.911432   -0.295120
C       1.320118    1.884597   -0.124605
C       1.292777    2.994054   -1.107964
C       1.041492    4.299754   -1.034232
O       1.139367    4.854216   -2.295314
C       1.452544    3.844791   -3.163568
O       1.611627    3.948810   -4.334440
O       1.551959    2.684456   -2.436314
H      -0.095701    0.660900   -1.348991
H       1.305611    2.271426    0.896528
H       2.245847    1.305958   -0.256516
H       0.798071    4.959349   -0.220558
