19

C       0.264606    1.551569   -0.006465
C      -0.016205    0.046024    0.028979
N       0.482586   -0.575059   -1.191056
C       1.073053   -1.795061   -1.366004
O       1.464996   -2.162176   -2.458305
C       1.178964   -2.689277   -0.135853
C       1.183276   -1.953910    1.181912
N       2.054872   -0.765335    1.255716
C       0.593091   -0.599463    1.259362
H       1.343286    1.729220   -0.011112
H      -0.173417    2.011866   -0.898616
H      -0.171829    2.043379    0.868421
H      -1.106451   -0.102316    0.101312
H       0.440281   -0.028649   -2.039616
H       0.327201   -3.381642   -0.162381
H       2.081121   -3.293764   -0.263475
H       1.116022   -2.581583    2.068057
H       2.424390   -0.653524    2.195420
H       0.111440   -0.301918    2.188281
