19

O      -0.641515    0.351165    0.160723
C      -0.239475    1.479987    0.060594
C       1.232995    1.885020   -0.026443
C       1.438765    2.634070   -1.353270
C       2.846054    3.233065   -1.549227
C       3.064407    4.522728   -0.808406
C       2.726641    4.758650    0.466851
C       2.135027    3.831371    1.425677
C       1.559730    2.631201    1.243100
H      -0.941603    2.345783    0.031502
H       1.796051    0.942760   -0.037304
H       1.229980    1.931328   -2.168071
H       0.699847    3.439734   -1.438207
H       3.599722    2.493114   -1.243660
H       3.010882    3.403602   -2.618070
H       3.531916    5.329520   -1.367295
H       2.958295    5.740343    0.873559
H       2.207235    4.164266    2.459779
H       1.246380    2.102353    2.142103
