15

C       0.022674   -3.186416   -0.986340
C       0.026984   -2.073294   -0.518352
C       0.032415   -0.818153    0.007575
C       0.029224    0.295352    0.485010
C       0.054414    1.654710    1.028605
N       0.879336    2.644520    0.326524
C       2.138383    2.213823   -0.272533
C       0.973703    2.577562   -1.128186
H       0.018732   -4.165621   -1.396813
H      -0.970365    2.046105    1.059149
H       0.403352    1.617075    2.068375
H       2.969494    2.900962   -0.143554
H       2.396968    1.158419   -0.225659
H       0.471713    1.759691   -1.640081
H       0.935968    3.536048   -1.637520
