20

C       0.724282    0.067899    1.272395
C       0.001299    0.073877   -0.056208
C       0.466667    0.932377   -1.152696
O       0.743894   -0.470883   -1.162430
C      -1.425203   -0.360270   -0.010853
C      -1.907507   -1.819816    0.104438
C      -3.158236   -1.438000   -0.756174
C      -2.630623    0.001207   -0.832635
N      -2.431618    0.566662    0.500403
H       1.771494    0.351595    1.142530
H       0.247751    0.769077    1.964555
H       0.694765   -0.929571    1.724414
H      -0.236374    1.276725   -1.908602
H       1.329807    1.578134   -0.994190
H      -1.249695   -2.519666   -0.414646
H      -2.086707   -2.184899    1.121347
H      -3.165482   -1.948470   -1.721659
H      -4.142826   -1.553560   -0.290860
H      -2.737702    0.690427   -1.662893
H      -3.040360    0.143589    1.200005
