18

C       0.095813    1.374970   -0.194879
N       0.236848   -0.055370   -0.032245
C       0.623629   -0.619870    1.141075
O       0.891182   -0.028814    2.165277
O       0.669663   -1.972589    1.002333
C       1.071282   -2.670992    2.196339
C       1.082337   -4.098164    1.924338
C       1.102305   -5.285940    1.734033
C       1.124881   -6.721734    1.498875
H       0.770787    1.760112   -0.967808
H      -0.931618    1.650034   -0.459587
H       0.350359    1.839539    0.758403
H       0.047518   -0.676116   -0.800871
H       2.060477   -2.315948    2.506048
H       0.378087   -2.424712    3.008317
H       2.125536   -7.137197    1.660192
H       0.432795   -7.246680    2.166252
H       0.831995   -6.953600    0.469030
