21

O      -0.084054    1.410376    0.179796
C      -0.016341    0.006300   -0.038221
C      -1.424625   -0.536997   -0.035877
C      -2.179463   -0.513191    1.339632
C      -2.575644   -1.969774    1.104147
C      -3.085058   -2.164779   -0.316103
C      -3.582210   -0.945548   -1.093886
C      -2.344549   -0.009377   -1.150020
C      -1.606998   -2.085901   -0.061024
H       0.812980    1.755958    0.197291
H       0.465272   -0.222689   -1.004336
H       0.574681   -0.489339    0.749090
H      -1.479031   -0.413636    2.173056
H      -2.975783    0.229788    1.458862
H      -2.793493   -2.701642    1.873990
H      -3.520562   -3.138049   -0.515929
H      -3.919226   -1.228575   -2.095829
H      -4.434086   -0.467722   -0.597549
H      -2.593418    1.045497   -1.008798
H      -1.838235   -0.103439   -2.118841
H      -0.869451   -2.840799   -0.302982
