22

C       0.003734    1.562783    0.033392
C       0.120634    0.052378    0.071119
C       1.365459   -0.754421   -0.220593
C       1.419463   -1.816626   -1.282904
C       2.605042   -0.041742    0.341573
C       1.959358   -0.055542    1.762304
C       0.726264   -0.768656    1.186706
C      -0.029872   -1.848982    1.908414
H       0.886301    2.063517    0.439461
H      -0.130149    1.918708   -0.994521
H      -0.861192    1.902309    0.614625
H      -0.762777   -0.441060   -0.334994
H       1.641035   -1.385765   -2.267771
H       2.196779   -2.560132   -1.068973
H       0.464901   -2.347157   -1.367546
H       3.500009   -0.667976    0.291807
H       2.850465    0.934986   -0.089464
H       2.515194   -0.688864    2.459115
H       1.788616    0.912273    2.246290
H      -0.629150   -1.436398    2.730203
H      -0.717465   -2.373819    1.236418
H       0.648439   -2.594491    2.340737
