21

C       0.444131    1.594802    0.044225
C       0.012450    0.150285    0.274091
C       0.484910   -0.852069   -0.817135
C       1.635159   -1.318293    0.112941
C       0.922510   -0.631562    1.311528
O       1.691459    0.117440    2.224196
C       0.055379   -1.599690    2.116389
C      -0.201975   -1.257566    3.567951
O      -0.427914   -2.575550    1.585255
H       1.496531    1.666642   -0.259021
H      -0.147656    2.042523   -0.760619
H       0.306771    2.204715    0.942888
H      -1.056885    0.121050    0.503670
H      -0.240376   -1.647164   -0.990188
H       0.773581   -0.410592   -1.774464
H       1.799414   -2.392568    0.204973
H       2.587205   -0.825029   -0.105840
H       2.212687    0.755874    1.728262
H       0.738527   -1.284791    4.126404
H      -0.580869   -0.234870    3.661676
H      -0.913530   -1.970095    3.986173
