18

C      -0.110241    1.451152    0.097300
N       0.099937    0.019143   -0.047543
C       0.679034   -0.626178    0.861736
C       0.953517   -2.110169    0.835738
C       1.689718   -2.377363    2.136160
O       2.165023   -3.412077    2.520330
C       1.735622   -1.052097    2.907115
C       3.144812   -0.655163    3.325867
O       1.161388   -0.075811    2.031027
H       0.562308    1.985741   -0.584428
H      -1.132125    1.690212   -0.214444
H       0.052278    1.831654    1.111529
H       0.027958   -2.692918    0.791865
H       1.554505   -2.404506   -0.029035
H       1.091814   -1.145033    3.793206
H       3.788493   -0.534042    2.449821
H       3.129084    0.286398    3.879672
H       3.563359   -1.438891    3.962452
