13

O      -0.030362    1.464931    0.160490
C       0.020281    0.085882    0.028287
C      -1.306744   -0.700723    0.029768
N      -2.013705   -0.214500   -1.150778
C      -1.008003   -1.336223   -1.309187
C      -1.379192   -2.609149   -1.819510
N      -1.656896   -3.649392   -2.244223
C       0.325226   -0.579102   -1.371991
O       1.251340   -0.589711   -2.115060
H      -0.693269    1.784833   -0.465455
H       0.738101   -0.301505    0.758899
H      -1.817381   -1.162696    0.864392
H      -2.941124   -0.637336   -1.192343
