17

C      -0.196525    1.523872    0.162399
C       0.136410    0.043154   -0.017329
N       0.767326   -0.531418    1.158943
C       0.297457   -1.444844    2.030245
N       1.179978   -1.680069    2.981985
C       2.216416   -0.856050    2.643233
C       3.479435   -0.765676    3.431938
N       2.008591   -0.140621    1.544628
H       0.711180    2.089513    0.383784
H      -0.642697    1.921157   -0.754004
H      -0.904188    1.668799    0.983883
H      -0.766558   -0.543164   -0.211542
H       0.813845   -0.097195   -0.865227
H      -0.674975   -1.904107    1.927479
H       3.976498   -1.739659    3.480083
H       4.158236   -0.043519    2.975231
H       3.271532   -0.457241    4.461313
