17

O      -0.031250    1.421031    0.232297
C       0.075919    0.018451    0.043949
C       0.639824   -0.612491    1.340364
C      -0.169369   -1.610078    1.739085
C      -1.319160   -1.267974    2.694574
C      -2.101588   -1.110498    1.334010
C      -1.300471   -0.643296    0.022696
C      -1.161754   -2.001253    0.613635
O      -1.406744   -3.244812    0.074221
H       0.837851    1.811011    0.090801
H       0.608666   -0.194462   -0.897405
H       1.131452    0.062236    2.037588
H      -1.765428   -2.094192    3.258571
H      -1.175213   -0.396580    3.338493
H      -3.185877   -1.106666    1.254958
H      -1.969321   -0.480921   -0.819841
H      -0.680651   -3.464982   -0.520314
