17

C       0.039712    1.597010    0.011950
C       0.088757    0.077868    0.005613
C       0.798202   -0.676791   -1.126047
C       2.253860   -0.810500   -0.710703
N       2.409252   -0.068154    0.554067
C       1.085188   -0.660793    0.945466
C       1.228562   -1.794564   -0.168535
C       1.080151   -3.196406   -0.211846
N       0.966676   -4.350255   -0.223971
H       1.044267    2.016949   -0.066488
H      -0.563231    1.967270   -0.824013
H      -0.416166    1.965955    0.937374
H      -0.907261   -0.355143    0.142131
H       0.487469   -0.805241   -2.154967
H       3.059776   -0.980905   -1.412035
H       3.129591   -0.544270    1.095287
H       0.893278   -0.804707    2.005875
