20

C      -0.693157    1.192795   -0.008404
C       0.166175   -0.055473   -0.124402
C       1.572483    0.027276   -0.773194
C       2.080161   -1.009120    0.260161
C       0.835336   -0.690004    1.162504
C       1.174928    0.330430    2.260149
C       0.136838   -1.833092    1.725792
C      -0.449405   -2.780956    2.180186
H      -0.154509    2.018454    0.467448
H      -1.006091    1.533620   -1.001671
H      -1.599864    0.999885    0.575562
H      -0.407864   -0.847405   -0.615642
H       1.650101   -0.236845   -1.830131
H       2.030282    1.011224   -0.631899
H       2.041039   -2.030391   -0.124046
H       3.058096   -0.839921    0.717838
H       1.720764    1.185139    1.849001
H       0.270706    0.703042    2.749476
H       1.803698   -0.137063    3.023698
H      -0.963566   -3.618973    2.580868
