11

O       0.078189    1.301796    0.184993
C       0.068679   -0.023509    0.029456
N       0.080070   -0.681080   -1.108303
C       0.062807   -2.003040   -0.748725
C       0.040689   -2.140949    0.620716
N       0.045021   -0.830656    1.111705
C       0.017820   -3.272206    1.456086
N      -0.001105   -4.198329    2.154136
H       0.095060    1.686559   -0.701335
H       0.066904   -2.793009   -1.483040
H       0.032942   -0.546214    2.077249
