21

C       0.074829    1.481118   -0.069791
C       0.054580    0.025628   -0.038183
C       0.043707   -1.176829    0.010109
C       0.022834   -2.640355    0.015380
C      -1.450424   -3.134420    0.063562
C       0.708472   -3.170971   -1.266198
C       0.713369   -3.173230    1.304693
C       1.189929   -4.618100    1.304400
O       0.841506   -2.477683    2.281331
H       1.100731    1.863439   -0.111530
H      -0.459435    1.870472   -0.943655
H      -0.398579    1.902575    0.823774
H      -1.987821   -2.766226   -0.814502
H      -1.501688   -4.227763    0.062749
H      -1.953094   -2.758331    0.957681
H       1.757546   -2.864868   -1.308330
H       0.658602   -4.261745   -1.325430
H       0.204707   -2.760572   -2.145261
H       2.095015   -4.710985    0.693913
H       1.424248   -4.909650    2.328804
H       0.447754   -5.301444    0.882169
