19

C      -0.168607    1.589289    0.132422
C       0.099070    0.106491    0.022595
C      -1.077911   -0.878319    0.234148
O      -0.335675   -1.617989    1.228111
C       0.773274   -0.698370    1.167305
C       2.025826   -1.293488    0.526427
O       2.347099   -2.543693    1.090213
C       1.621960   -1.325103   -0.961412
O       0.858100   -0.141092   -1.158799
H       0.771563    2.147463    0.164000
H      -0.737773    1.934833   -0.736614
H      -0.744161    1.816114    1.034053
H      -1.989535   -0.434654    0.653504
H      -1.334500   -1.486407   -0.641047
H       0.955357   -0.212499    2.130665
H       2.841099   -0.564350    0.662179
H       3.195263   -2.825544    0.734542
H       2.465948   -1.297057   -1.656191
H       1.034535   -2.235470   -1.149998
