19

O       0.034427    1.388599    0.064625
C       0.011502   -0.005407    0.078973
C       0.828368   -0.685900    1.203526
C       1.117957   -2.123358    0.636204
C       0.440877   -2.124573   -0.760756
C      -1.097487   -2.100509   -0.553750
C      -1.387805   -0.662358    0.011953
C       0.660629   -0.666759   -1.141772
O       1.168540   -0.106907   -2.076560
H       0.478412    1.640893   -0.759213
H       1.752205   -0.125652    1.368509
H       0.276827   -0.706290    2.146972
H       2.193309   -2.299048    0.546860
H       0.708153   -2.913670    1.270664
H       0.807754   -2.874838   -1.458649
H      -1.619730   -2.260849   -1.500693
H      -1.412510   -2.891005    0.132533
H      -1.871908   -0.682581    0.991707
H      -2.025368   -0.086670   -0.663905
