20

C       0.053628    1.467414    0.138565
C       0.015645   -0.035650   -0.074175
C       0.559741   -0.534038   -1.428248
C       0.011623   -1.972816   -1.503304
N      -1.265645   -1.973766   -0.744692
C      -1.170893   -1.956531    0.730411
C       0.182409   -1.874766    1.403234
O       0.791528   -0.663224    0.971168
C      -1.369714   -0.697847   -0.018320
H       1.085949    1.828017    0.119827
H      -0.506263    1.985397   -0.646007
H      -0.378042    1.728800    1.108821
H       0.146981    0.070531   -2.243876
H       1.649940   -0.473455   -1.470292
H      -0.204011   -2.283737   -2.528745
H       0.715437   -2.700925   -1.085883
H      -1.971699   -2.484328    1.240457
H       0.056763   -1.852056    2.494230
H       0.830614   -2.730825    1.163448
H      -2.289149   -0.123928   -0.073854
