21

C       0.038605    1.405451   -0.356009
C       0.106184   -0.059090    0.039587
O       1.159515   -0.617429    0.248775
C      -1.220028   -0.789590    0.119980
C      -1.707660   -1.426836   -1.228853
C      -2.101170   -2.703614   -0.445956
C      -3.588933   -2.792010   -0.118805
O      -1.658585   -3.866531   -1.118905
C      -1.227050   -2.204706    0.744478
H       1.041890    1.793915   -0.534759
H      -0.580670    1.538166   -1.250153
H      -0.436708    1.982460    0.446334
H      -1.987308   -0.128631    0.534019
H      -2.494078   -0.908393   -1.782184
H      -0.870046   -1.644540   -1.895637
H      -4.168087   -2.973969   -1.029423
H      -3.781051   -3.613525    0.582954
H      -3.955056   -1.872007    0.348383
H      -1.918283   -4.634556   -0.598222
H      -0.223615   -2.632970    0.700210
H      -1.633827   -2.309065    1.753636
