21

C       0.078879    1.483748    0.193108
C       0.039535   -0.006812    0.007651
C       0.848341   -0.777380   -1.072869
C       0.737447   -1.847903    0.034223
O       0.787692   -0.770815    1.021360
C      -0.756311   -2.218219    0.009298
C      -1.433800   -2.452563    1.387376
C      -1.990057   -0.997430    1.368090
C      -1.317428   -0.750887   -0.010859
H       1.110008    1.842610    0.253345
H      -0.415914    1.982702   -0.646765
H      -0.439951    1.773570    1.112758
H       0.389213   -0.966928   -2.047578
H       1.862948   -0.389247   -1.174834
H       1.482459   -2.627059    0.199111
H      -1.020726   -2.903321   -0.798449
H      -2.206801   -3.224510    1.371349
H      -0.738452   -2.667079    2.201950
H      -3.080707   -0.937560    1.342118
H      -1.622539   -0.356594    2.172921
H      -1.966512   -0.438282   -0.831254
