25

C      -0.017756    1.581898    0.120543
C      -0.045112    0.057225   -0.010044
C       0.721942   -0.457137   -1.233931
O       2.086338   -0.027024   -1.212382
C       0.625907   -1.979792   -1.386224
C       1.267067   -2.498227   -2.674369
C       1.330491   -4.027279   -2.714072
O       0.483354   -1.980733   -3.747276
C       1.147187   -1.925845   -4.987687
H       1.012161    1.947568    0.142793
H      -0.517876    2.056171   -0.730993
H      -0.523532    1.912831    1.032646
H       0.383392   -0.404246    0.892872
H      -1.081390   -0.298379   -0.068208
H       0.309038    0.001601   -2.139082
H       2.489534   -0.387760   -0.414074
H       1.106634   -2.462155   -0.523462
H      -0.427795   -2.284698   -1.375348
H       2.284852   -2.084263   -2.743639
H       1.770726   -4.386787   -3.648772
H       1.944196   -4.409647   -1.891845
H       0.325966   -4.453436   -2.623885
H       0.466364   -1.447126   -5.696616
H       2.071609   -1.330996   -4.927940
H       1.404296   -2.922495   -5.376402
