18

C      -0.032148    1.550404   -0.000593
C       0.040284    0.026247   -0.065553
C      -1.276132   -0.553479    0.186908
C      -2.374907   -1.006948    0.364886
C       0.744291   -0.705684   -1.251337
C       2.153435   -0.065147   -1.303359
C       2.343413   -0.655688    0.092923
C       1.297707   -1.677684   -0.139865
N       1.047295   -0.618376    0.871597
H       0.955276    2.005199   -0.095825
H      -0.679110    1.937971   -0.793552
H      -0.453639    1.853758    0.961599
H      -3.342133   -1.411282    0.534483
H       0.198574   -0.960457   -2.157095
H       2.789577   -0.591447   -2.020251
H       2.240175    1.012745   -1.465370
H       3.241340   -0.714959    0.693478
H       1.226192   -2.739352    0.051091
