18

C      -0.010749    1.547989   -0.042731
C      -0.029098    0.018715    0.016537
N      -1.376429   -0.543176    0.007872
C      -2.057333   -0.908506    1.127421
C      -3.331157   -1.323992    0.772063
C      -3.426326   -1.201150   -0.623150
C      -2.210496   -0.712050   -1.092228
C      -1.826226   -0.432131   -2.460947
O      -2.558201   -0.577887   -3.420265
H       1.020666    1.911616   -0.005981
H      -0.469712    1.913348   -0.965206
H      -0.558231    1.974933    0.802286
H       0.535494   -0.406651   -0.817678
H       0.454086   -0.330459    0.933498
H      -1.584511   -0.849830    2.096265
H      -4.088763   -1.681783    1.451779
H      -4.265344   -1.441748   -1.256977
H      -0.784936   -0.063887   -2.601485
