20

C       0.150715    1.654300    0.020457
C      -0.007986    0.133916    0.058774
C       0.615813   -0.495762   -1.208022
O       0.711667   -1.906806   -1.202710
C      -0.498389   -2.631068   -1.103895
C      -0.693702   -3.197114    0.301001
O      -0.886925   -2.175627    1.281351
C       0.240371   -1.502088    1.696224
N       0.659217   -0.407542    1.237379
H       1.209532    1.930381    0.032719
H      -0.312510    2.075356   -0.878195
H      -0.324847    2.109113    0.893326
H      -1.077244   -0.115377    0.073703
H       0.042293   -0.148200   -2.082008
H       1.647362   -0.145803   -1.315722
H      -1.362919   -2.014443   -1.385391
H      -0.444640   -3.472976   -1.807940
H      -1.593057   -3.820969    0.330577
H       0.172444   -3.817897    0.566729
H       0.739450   -1.970736    2.547332
