15

O      -0.322666    0.073547    0.052644
C      -0.081454    1.257980    0.041352
N       1.173109    1.810919   -0.005184
C       2.378233    1.110928   -0.047447
C       2.619871   -0.200074   -0.052318
C       4.103745   -0.416715   -0.106663
O       4.687434    0.891344   -0.131775
C       3.676430    1.878735   -0.098024
H      -0.864077    2.040676    0.067874
H       1.221757    2.818401   -0.008886
H       1.885634   -0.988208   -0.022855
H       4.484655   -0.968775    0.766813
H       4.419077   -0.973622   -1.002917
H       3.739396    2.524369   -0.990922
H       3.804999    2.530648    0.783192
