19

C       0.088181    1.447585    0.157108
C       0.034843   -0.098748    0.076505
N      -1.289504   -0.694763    0.157775
C      -2.119967   -0.266340    1.268309
C      -3.342778   -1.074601    1.344032
N      -4.318410   -1.689700    1.402172
C       0.639608   -0.514822   -1.273315
C       2.138589   -0.706563   -1.328345
O      -0.072384   -0.658025   -2.240265
H       1.113979    1.815650    0.055966
H      -0.515351    1.890417   -0.641572
H      -0.289991    1.803846    1.119259
H       0.655780   -0.507411    0.885737
H      -1.757459   -0.594258   -0.737209
H      -1.564172   -0.409661    2.204367
H      -2.426493    0.794019    1.250019
H       2.666662    0.097397   -0.806121
H       2.393250   -1.640841   -0.812958
H       2.472155   -0.768121   -2.364736
