18

C      -0.003961    1.447629    0.103049
C      -0.027287   -0.044203   -0.034817
C       0.613455   -0.954968   -1.113020
C       0.014319   -1.906273   -0.041662
N       0.509872   -0.967772    1.065900
C       0.110615   -3.331027    0.049432
C       0.179327   -4.530190    0.114492
C      -1.269488   -0.994395   -0.051343
O      -2.111968   -1.009954    1.043054
H       1.018025    1.825163    0.215380
H      -0.444493    1.921146   -0.780317
H      -0.582782    1.754611    0.979771
H       0.169092   -0.969987   -2.113813
H       1.705638   -0.942118   -1.154735
H       1.534349   -0.954753    1.063903
H       0.235239   -5.588886    0.176286
H      -1.867249   -1.015242   -0.963929
H      -1.521123   -1.017442    1.812520
