20

C       0.077326    1.498429   -0.024155
C      -0.006704   -0.034022    0.094321
C      -1.412136   -0.546462    0.082433
N      -2.138502   -0.803267    1.159633
C      -3.339208   -1.202776    0.649362
C      -4.494963   -1.607949    1.501329
N      -3.394599   -1.208198   -0.674091
N      -2.150717   -0.785416   -1.028338
C      -1.822565   -0.633569   -2.428628
H       1.117768    1.831864    0.031141
H      -0.340176    1.851812   -0.972453
H      -0.480415    1.975066    0.786519
H       0.577951   -0.502979   -0.705382
H       0.435986   -0.353973    1.041069
H      -4.794710   -0.788788    2.162722
H      -5.344472   -1.887860    0.876052
H      -4.227784   -2.456587    2.139061
H      -2.352678    0.220407   -2.861488
H      -0.748536   -0.478147   -2.536493
H      -2.112579   -1.537107   -2.969273
