22

C      -0.402566    1.504965   -0.204043
C       0.102917    0.067008   -0.027922
C       0.828926   -0.470393   -1.242128
C       0.082871   -1.053732   -2.389471
N       0.817068   -1.932583   -1.465180
C       2.153607   -2.319726   -1.960598
C       2.884212   -1.038168   -2.408559
C       2.215923    0.075780   -1.571641
O       2.108942    1.322971   -2.247750
H       0.417906    2.189046   -0.434455
H      -1.119730    1.568084   -1.029176
H      -0.902374    1.854414    0.704682
H       0.774544    0.013289    0.840013
H      -0.734972   -0.603515    0.191152
H      -0.998186   -1.142750   -2.326618
H       0.462022   -0.904027   -3.396644
H       2.680626   -2.797603   -1.127347
H       2.060976   -3.063419   -2.758606
H       3.964923   -1.095625   -2.251956
H       2.719036   -0.819271   -3.467763
H       2.758184    0.212526   -0.622037
H       2.995259    1.684721   -2.346919
