17

C      -0.040759    1.496533    0.021807
C      -0.043113   -0.003671   -0.020922
C       1.135087   -0.896397   -0.373128
O       0.644722   -2.081944   -0.987789
C      -0.565643   -2.192892   -0.264617
O      -0.192627   -2.110678    1.113699
C       0.581789   -0.918247    1.031006
C      -1.253641   -0.822763   -0.485820
O      -2.417842   -0.636549    0.279011
H       0.867680    1.886412    0.492496
H      -0.102299    1.922857   -0.985644
H      -0.900586    1.859826    0.594316
H       2.121941   -0.588406   -0.687026
H      -1.092888   -3.117726   -0.480470
H       1.082185   -0.626300    1.942574
H      -1.510039   -0.655605   -1.534244
H      -2.211778   -0.961849    1.165244
