23

C      -0.147591    1.600599   -0.019099
C       0.008235    0.096036    0.027887
C       1.297207   -0.618972   -0.329130
C       2.588823    0.088973   -0.705053
C       3.809479   -0.425036    0.073161
O       3.909468    0.092655    1.387818
C       3.015470   -0.436090    2.350898
C       1.574010    0.074835    2.206079
C       0.798117   -0.625935    1.102590
H       0.751968    2.134067    0.296953
H      -0.383422    1.934394   -1.035829
H      -0.965206    1.926283    0.633750
H      -0.893152   -0.423991   -0.288865
H       1.166560   -1.560761   -0.857315
H       2.773949   -0.048062   -1.778345
H       2.527411    1.169491   -0.541605
H       3.808696   -1.528104    0.094387
H       4.728665   -0.103364   -0.429007
H       3.031386   -1.538927    2.324244
H       3.422329   -0.121545    3.318408
H       1.052235   -0.072045    3.160639
H       1.624242    1.156907    2.049232
H       0.370298   -1.571871    1.426921
