15

N      -0.014954    1.332495    0.418355
C       0.099382    0.034411    0.052037
O       1.154005   -0.523926   -0.189350
C      -1.219261   -0.731808   -0.048656
O      -2.289232    0.129697    0.277471
C      -1.382779   -1.572952   -1.342876
O      -1.510728   -2.795150   -0.591719
C      -1.216859   -2.119855    0.646028
H       0.820169    1.887288    0.501170
H      -0.918837    1.731529    0.603364
H      -3.115379   -0.359685    0.211923
H      -2.283841   -1.336279   -1.923394
H      -0.502378   -1.576608   -1.992862
H      -0.247728   -2.415853    1.059270
H      -2.006820   -2.249375    1.397097
