16

N       0.257590   -0.035819   -1.524256
C       0.089320    0.584585   -0.564457
C      -0.132040    1.360317    0.669915
O       1.021093    2.052696    1.110719
C       1.320470    3.194796    0.388819
C       1.976918    3.201993   -0.976744
C       2.645448    3.872360    0.193915
O       2.091862    5.171853    0.420074
C       0.794818    4.591848    0.727068
H      -0.979901    2.039643    0.509980
H      -0.402664    0.667141    1.471459
H       2.411647    2.248146   -1.256628
H       1.579310    3.797254   -1.794009
H       3.645095    3.664762    0.554658
H      -0.008224    5.014283    0.112745
H       0.561883    4.705026    1.791929
