18

N       0.003669   -1.303030   -0.214897
C      -0.035603   -0.148174   -0.225113
C      -0.071906    1.311804   -0.232761
C       1.284299    1.975224    0.018613
C       2.268641    1.365919    0.980750
C       2.549875    1.338770   -0.502737
C       1.178715    3.473601   -0.049390
C       0.994104    4.310981    1.145577
O       2.260919    4.227361    0.483552
H      -0.472669    1.635016   -1.202654
H      -0.794247    1.638367    0.526318
H       2.852913    2.050459    1.583998
H       1.999385    0.432301    1.461732
H       2.472489    0.387875   -1.018062
H       3.318112    2.004808   -0.878909
H       0.797927    3.860149   -0.998380
H       0.491010    5.272753    1.064194
H       0.953663    3.838006    2.125185
