17

C      -0.028119    1.430568   -0.314160
C      -0.025842    0.011810    0.012315
C      -0.014242   -1.162179    0.277328
C      -0.031306   -2.586516    0.594918
C      -1.376044   -3.226457    0.301062
O      -1.632657   -3.626833   -1.038014
C      -1.510160   -4.659712   -0.043036
C      -0.378316   -5.543076   -0.131655
C       0.546315   -6.309478   -0.187174
H       0.885246    1.716745   -0.847291
H      -0.878615    1.688426   -0.954844
H      -0.092927    2.049224    0.587783
H       0.740881   -3.120893    0.031345
H       0.195881   -2.737265    1.659439
H      -2.226043   -2.756240    0.797736
H      -2.452638   -5.149203    0.201573
H       1.365593   -6.983111   -0.244805
