17

N      -0.142370    1.257170   -0.296674
C      -0.047796   -0.113773   -0.095811
O       0.940939   -0.762931   -0.376829
N      -1.183431   -0.679681    0.456988
C      -2.597404   -0.294306    0.207610
C      -2.928621   -1.789946    0.065072
O      -4.045553   -2.377675    0.617643
C      -2.073016   -2.430471   -1.000386
C      -1.473109   -2.102956    0.348256
H       0.755695    1.689300   -0.453684
H      -0.751728    1.778295    0.315759
H      -3.068182    0.154232    1.089015
H      -2.752646    0.344540   -0.669143
H      -4.706366   -2.488323   -0.074443
H      -2.279166   -3.486822   -1.144376
H      -1.758456   -1.891814   -1.890140
H      -1.006384   -2.829837    0.998998
