23

C      -0.058101    1.584886   -0.066191
C      -0.027391    0.042203   -0.049666
C       0.850733   -0.505899   -1.196710
C       2.301243   -0.398181   -0.652389
C       2.195663   -0.554015    0.900832
C       0.715143   -0.493439    1.165341
C      -0.108876   -0.945216    2.106741
C      -1.558299   -0.783493    1.687269
C      -1.446716   -0.542522    0.153742
H       0.947913    2.016990   -0.059258
H      -0.569813    1.949214   -0.964384
H      -0.589134    1.975535    0.807882
H       0.597521   -1.557542   -1.375010
H       0.723366    0.027661   -2.144382
H       2.960639   -1.147850   -1.097666
H       2.727506    0.577922   -0.903535
H       2.623329   -1.498748    1.251259
H       2.747235    0.242887    1.412939
H       0.183695   -1.393271    3.050742
H      -2.165307   -1.664624    1.925106
H      -2.038799    0.062118    2.200609
H      -2.238651    0.105831   -0.233450
H      -1.526619   -1.503838   -0.365772
