20

C      -0.217529    1.488659    0.230727
C       0.018268    0.009361    0.021766
C       0.541440   -0.606908   -1.245709
C       1.054410    0.247935   -2.413107
N       2.501837    0.474489   -2.433985
C       2.989509    1.013691   -1.164929
C       2.665020    0.147959    0.060480
O       3.440678    0.056326    0.988459
C       1.401550   -0.647849    0.014731
H       0.505731    2.120201   -0.288443
H      -1.213924    1.769520   -0.128677
H      -0.165031    1.738571    1.295242
H      -0.714806   -0.603779    0.540505
H       0.090299   -1.551917   -1.534234
H       0.776850   -0.233043   -3.355369
H       0.567649    1.230765   -2.414472
H       2.970450   -0.409214   -2.612983
H       4.075788    1.135156   -1.196810
H       2.565093    2.017580   -1.025006
H       1.477962   -1.574115    0.574475
