20

C      -0.317634    1.228148   -0.087902
O       0.344524   -0.005144    0.143509
C       0.875334   -0.556101   -1.025529
C       1.314898   -1.994721   -0.963483
C       1.261730   -2.787419    0.323061
C       0.052595   -1.612591   -1.729485
N      -1.235604   -1.897292   -1.177195
C      -2.146046   -2.693955   -1.795682
O      -1.974436   -3.261570   -2.853870
H       0.374903    1.979764   -0.493041
H      -1.157222    1.116300   -0.787766
H      -0.693390    1.575599    0.877067
H       1.451377    0.148905   -1.625418
H       2.164859   -2.228414   -1.599546
H       0.430867   -2.476778    0.958517
H       1.148896   -3.855602    0.112399
H       2.183274   -2.650323    0.897563
H       0.060091   -1.684259   -2.810096
H      -1.473792   -1.455819   -0.302580
H      -3.088684   -2.759843   -1.216074
