16

C      -0.028065    1.512070   -0.009532
C      -0.014569    0.005448    0.028352
N      -0.226997   -0.631261   -1.132583
C      -0.224947   -1.958731   -1.146554
C      -0.014312   -2.762524   -0.015365
N      -0.089595   -4.154059   -0.093115
C       0.210353   -2.095137    1.190811
C       0.209136   -0.706787    1.207909
H       0.165016    1.940987    0.977292
H       0.729344    1.888676   -0.704938
H      -0.996389    1.881757   -0.363079
H      -0.401920   -2.433612   -2.111892
H       0.088086   -4.531885   -1.013029
H       0.441692   -4.646210    0.610860
H       0.380609   -2.659301    2.103555
H       0.384014   -0.175914    2.137957
