23

C       0.116431    1.612664   -0.224083
C       0.110545    0.107027   -0.074630
C       1.406994   -0.666803   -0.000131
C       0.512001   -0.570222    1.211667
C       0.956852    0.202483    2.464933
O       0.473065   -0.530948    3.582054
C       0.306416   -1.891345    3.183538
C      -0.592664   -2.587728    4.188539
C      -0.233799   -1.788337    1.750388
H       0.968579    2.065104    0.293365
H       0.184544    1.899615   -1.279146
H      -0.795830    2.062406    0.184237
H      -0.695089   -0.386305   -0.615233
H       1.481308   -1.618788   -0.516826
H       2.330850   -0.093653    0.009904
H       2.054334    0.289231    2.505521
H       0.536614    1.212118    2.527751
H       1.291963   -2.390416    3.161801
H      -1.573358   -2.102984    4.222083
H      -0.730330   -3.638913    3.916656
H      -0.154657   -2.546049    5.189745
H      -1.315367   -1.605849    1.781574
H      -0.058265   -2.693426    1.162141
