18

O      -0.372751    0.151325   -0.094496
C      -0.096991    1.316619    0.020605
C       1.312031    1.882662    0.050502
C       1.538741    2.683404   -1.259686
C       2.734383    3.625736   -1.187142
N       2.420197    5.040714   -0.898796
C       3.103277    4.209886    0.124993
C       2.311465    3.804225    1.312350
C       1.506221    2.742808    1.283522
H      -0.893870    2.094082    0.099126
H       1.991148    1.021209    0.087701
H       1.653643    1.981518   -2.091059
H       0.647719    3.287823   -1.463829
H       3.539890    3.427537   -1.889199
H       3.104824    5.643328   -1.351052
H       4.153135    4.426650    0.311633
H       2.425507    4.383647    2.224605
H       0.966926    2.447827    2.180601
