15

C      -0.195139    1.461674   -0.146755
N       0.098732    0.041810    0.016844
C       1.413433   -0.530403   -0.162450
C       2.531797    0.329383    0.415573
O       3.102191   -0.355723    1.534090
C       1.859111    0.337807    1.740075
C       1.812263    1.358366    2.740228
N       1.725796    2.177231    3.552204
C       0.718571   -0.521067    1.191531
H       0.573494    2.142819    0.239830
H      -0.332657    1.661830   -1.213178
H      -1.136475    1.679504    0.365147
H       1.545977   -1.363940   -0.841467
H       3.129441    1.109167   -0.040020
H       0.238070   -1.333948    1.721851
