12

N       0.316439    1.211130    0.002267
C       0.059427   -0.025802    0.000685
N      -1.242690   -0.518111    0.012035
C      -2.401761    0.201447    0.025949
N      -2.585601    1.477214    0.032007
O      -4.020394    1.585151    0.046622
C      -4.577976    0.361539    0.048168
O      -5.727381    0.075029    0.058598
O      -3.526710   -0.553713    0.034645
H       1.321524    1.370198   -0.007139
H       0.780505   -0.850207   -0.009166
H      -1.371665   -1.517367    0.009988
