13

N       0.075482    1.477752    0.007382
C       0.081167    0.202033    0.000879
N      -1.097142   -0.558223    0.007784
C      -2.416809   -0.126044    0.024421
O      -2.807668    1.007811    0.035524
C       1.266026   -0.610987   -0.014054
C       2.287336   -1.264374   -0.026744
C       3.434128   -1.991649   -0.040947
C       4.451869   -2.641400   -0.053565
H       1.033418    1.825427    0.000586
H      -0.964897   -1.558151    0.000455
H      -3.091575   -1.006799    0.025221
H       5.348992   -3.210352   -0.064672
