15

C       0.050383    1.507039    0.009357
C      -0.091134    0.025563    0.065429
C      -1.153334   -0.720464   -0.291277
N      -1.185160   -2.095267   -0.205850
C      -0.115588   -2.679818    0.239303
N      -0.004808   -4.027398    0.331354
C       1.103087   -1.948213    0.677109
O       2.090660   -2.479211    1.123192
O       1.035784   -0.597984    0.552623
H       0.884069    1.799649   -0.639156
H      -0.865970    1.957119   -0.377790
H       0.251117    1.922662    1.003396
H      -2.047543   -0.240431   -0.670550
H      -0.828972   -4.589914    0.207132
H       0.788080   -4.394645    0.830640
