21

C      -1.565075   -0.182446    0.212186
C      -0.038020   -0.073417    0.176985
C       0.587133   -0.613101   -1.120769
C       2.115912   -0.332749   -1.180096
C       2.439947    1.086694   -1.221975
C       2.688698    2.262106   -1.267997
C       0.399217   -2.132850   -1.223822
C      -0.242160   -2.667378   -2.487892
O       0.771852   -2.861048   -0.331607
H      -2.024115    0.365089   -0.618894
H      -1.896833   -1.224819    0.152820
H      -1.963948    0.233690    1.142053
H       0.262092    0.973058    0.292723
H       0.394289   -0.630390    1.015722
H       0.116370   -0.127901   -1.983684
H       2.583079   -0.806345   -0.308700
H       2.547128   -0.824111   -2.062148
H       2.922852    3.297122   -1.303318
H      -1.261565   -2.274012   -2.580422
H       0.306852   -2.318739   -3.370545
H      -0.266556   -3.757634   -2.470112
