15

O       0.139259    1.464869    0.102168
C       0.104802    0.105300    0.065544
C       0.151612   -0.950973   -0.989156
O       1.104043   -1.775161   -0.334456
C       0.761406   -1.096483    0.899758
C      -0.670336   -1.614800    1.207062
C      -1.271317   -1.056399    2.466812
O      -0.736018   -0.230444    3.164826
C      -1.087466   -0.813789   -0.037106
H       1.005708    1.762096   -0.200646
H       0.082988   -0.954348   -2.068723
H       1.550177   -1.077926    1.646255
H      -0.805849   -2.702195    1.158707
H      -2.277345   -1.459055    2.723822
H      -2.078305   -0.599118   -0.416094
