15

C      -0.015996   -1.219147   -0.067162
C      -0.034099   -0.020491    0.017731
C      -0.015839    1.432568    0.117957
C       1.409540    2.016155   -0.052853
C       1.426429    3.505969    0.029010
C       1.985932    4.362624    0.923509
O       1.714824    5.615582    0.566923
N       0.932574    5.525720   -0.627452
N       0.790206    4.308709   -0.900834
H      -0.018079   -2.278191   -0.143200
H      -0.670720    1.870400   -0.644282
H      -0.420899    1.744813    1.088372
H       2.068689    1.600980    0.714652
H       1.806204    1.695428   -1.021573
H       2.577806    4.220172    1.812914
