21

C      -0.099063    1.528024    0.210762
C      -0.037051    0.015973    0.039776
C       1.047218   -0.484675   -1.001428
C       1.405908   -1.932487   -0.573486
C       2.130191   -2.418890    0.727991
C       2.674789   -1.505523    1.829187
C       1.581592   -0.453653    1.915161
C       0.514097   -0.809263    1.184343
C       0.648904   -2.237240    0.682756
H       0.873100    1.936732    0.505282
H      -0.391118    2.013113   -0.726538
H      -0.830059    1.811575    0.974674
H      -1.018179   -0.355770   -0.281313
H       0.654773   -0.490587   -2.025329
H       1.902701    0.199753   -0.981095
H       1.459947   -2.669691   -1.369743
H       2.559132   -3.412632    0.628330
H       2.859494   -2.081781    2.747971
H       3.625722   -1.017691    1.575260
H       1.801254    0.562630    2.225667
H      -0.118357   -2.991612    0.818013
