17

O       0.298254    0.631456   -0.936017
C      -0.077755    0.403553    0.416080
C      -1.419959   -0.304266    0.390560
C      -1.548264   -1.764046   -0.007707
C      -1.407530   -2.618894    1.212428
C      -1.184286   -1.730744    2.422160
C      -2.129634   -0.762584    1.683441
N      -2.732838   -1.977166    0.896756
H       1.169453    1.038375   -0.942483
H       0.673593   -0.208456    0.936020
H      -0.173394    1.351881    0.971627
H      -2.119350    0.286497   -0.210321
H      -1.526456   -2.184093   -1.006424
H      -1.278323   -3.693249    1.141877
H      -1.677541   -2.152436    3.301788
H      -0.174676   -1.402869    2.690001
H      -2.793302   -0.093692    2.228314
