16

C      -0.067832    1.507490    0.012599
C      -0.017912    0.013020   -0.007185
C      -0.033396   -0.802269   -1.103808
N       0.028944   -2.125112   -0.672089
C       0.083302   -2.146107    0.680472
O       0.149138   -3.324646    1.328348
C       0.057731   -0.844401    1.155743
C       0.100557   -0.511382    2.523750
C       0.138679   -0.271326    3.706981
H       0.821274    1.933434    0.491690
H      -0.129002    1.910890   -1.002051
H      -0.935223    1.873403    0.573919
H      -0.083153   -0.568909   -2.154361
H       0.033546   -2.945268   -1.252621
H       0.179936   -3.126751    2.273672
H       0.171040   -0.041948    4.742631
