20

C      -0.058009    1.254954   -0.423291
C      -0.178513   -0.131963    0.152007
O       0.865284   -1.069856   -0.163605
C       0.667074   -0.699496    1.222105
C       1.798966    0.074979    1.860774
C       0.094821   -1.821488    2.080648
C       1.077141   -2.981980    2.292569
N       1.482908   -3.575185    1.132465
O       1.428048   -3.354397    3.395035
H       0.947620    1.663050   -0.311060
H      -0.300077    1.239347   -1.491097
H      -0.766927    1.929156    0.069318
H      -1.179465   -0.560140    0.060973
H       2.266981    0.760901    1.153901
H       1.432437    0.647242    2.719472
H       2.568365   -0.611845    2.227589
H      -0.169379   -1.444885    3.071214
H      -0.811834   -2.214929    1.608942
H       1.319631   -3.111661    0.250986
H       2.206553   -4.273060    1.195771
