19

C       0.032241    1.525040    0.025899
C       0.015452    0.016513    0.012319
C       0.013020   -0.675765   -1.206747
N       0.055429   -0.015418   -2.449907
C       0.018742   -2.084840   -1.219037
N       0.004622   -2.729188   -2.475926
C      -0.013228   -2.784661   -0.015722
C      -0.035389   -2.100851    1.196935
C      -0.005809   -0.711617    1.205250
H       0.917835    1.930881   -0.479393
H      -0.847105    1.951064   -0.477312
H       0.032999    1.905445    1.050098
H      -0.201781    0.960294   -2.397701
H      -0.512474   -0.487700   -3.145183
H       0.700394   -2.344664   -3.107128
H       0.138961   -3.729113   -2.398478
H      -0.012726   -3.871150   -0.034552
H      -0.057654   -2.653631    2.129703
H      -0.008911   -0.173635    2.148162
