16

O      -0.077518   -0.007309    0.062093
C       0.018694    1.183719   -0.056286
N      -1.066549    2.101209   -0.255008
C      -0.357134    3.352645   -0.083890
C      -0.357332    4.888476   -0.075751
C       1.156326    4.456280    0.053344
C       0.800287    3.246062    0.962242
C       1.278780    2.090668    0.025714
C       0.942402    3.267370   -0.925503
H      -1.894755    1.896861    0.290282
H      -0.642140    5.391872   -1.004352
H      -0.804679    5.383696    0.791245
H       2.022204    5.111331    0.125942
H       0.684089    3.236948    2.046785
H       2.235406    1.575971    0.093552
H       0.969323    3.287830   -2.015374
