17

O       0.172972    1.461037    0.395062
C       0.005793    0.097681    0.279482
C      -0.628875   -0.807510    1.278327
O      -1.765919   -0.184265    1.900218
C      -2.482563   -0.187729    0.644838
C      -3.184712    1.108580    0.334184
C      -3.491488    2.069917    1.401786
O      -2.442462    2.326972    0.454488
C      -1.245032   -0.664079   -0.126110
H      -0.678408    1.870139    0.621880
H       0.886870   -0.354393   -0.173043
H      -0.181365   -1.644234    1.804101
H      -3.247646   -0.978936    0.661990
H      -3.832770    1.072258   -0.542033
H      -4.354920    2.725127    1.312216
H      -3.148926    1.850831    2.408925
H      -1.279906   -1.355160   -0.958518
