17

C      -0.000130    1.602671    0.055476
C       1.572461    1.585503    0.155547
C       1.515789    0.069573   -0.104802
O       0.701442   -0.537024    0.906046
C       0.050073    0.085185   -0.206975
C      -0.452716   -0.874325   -1.266593
C       0.864498   -1.455437   -1.807414
O       1.696719   -0.485029   -2.454111
C       2.047018   -0.887407   -1.119530
H      -0.556399    1.907975    0.944179
H      -0.351161    2.169763   -0.809345
H       2.042946    2.133000   -0.662981
H       2.018981    1.885085    1.105774
H      -1.101823   -1.657000   -0.861445
H      -0.997437   -0.354186   -2.060941
H       0.884691   -2.446862   -2.253143
H       2.988645   -1.420800   -1.021371
