17

C       0.152266    1.530118   -0.218221
C       0.015109    0.060760    0.087566
O       1.216410   -0.715612    0.161101
C       0.418198   -0.586831    1.348047
C       1.039177    0.115974    2.529060
C       2.133400   -0.727991    3.176785
O       2.622167   -0.009640    4.299081
H       0.960440    1.992281    0.351338
H       0.366315    1.671989   -1.282799
H      -0.782049    2.055874    0.007069
H      -0.782724   -0.435315   -0.470676
H      -0.110055   -1.508508    1.607694
H       1.470461    1.076447    2.235956
H       0.262923    0.320962    3.276818
H       1.722425   -1.706414    3.476726
H       2.927017   -0.917063    2.438828
H       3.349866   -0.508707    4.680958
