18

C      -0.146203    1.344451    0.007838
C       0.084349   -0.129099    0.038746
N      -0.203858   -0.917099   -0.987101
N       0.146455   -2.150738   -0.529469
C       0.631656   -2.036036    0.725601
N       0.603744   -0.781246    1.124648
C       0.071122   -3.306719   -1.369715
C      -0.528748   -4.569517   -0.808011
C      -1.278316   -3.767671   -1.841257
H       0.789759    1.885346    0.179134
H      -0.556722    1.641447   -0.958611
H      -0.842288    1.644367    0.797564
H       0.981731   -2.884914    1.293514
H       0.904943   -3.400162   -2.058655
H      -0.074595   -5.509697   -1.098041
H      -0.896836   -4.540831    0.210757
H      -2.132815   -3.190402   -1.510632
H      -1.349018   -4.150323   -2.852328
