14

O      -0.037307    1.435463    0.008958
C       0.023837    0.018995    0.001803
C      -1.377712   -0.499581    0.011649
C      -2.541379    0.234522    0.023238
N      -3.561341   -0.663365    0.028671
N      -3.161165   -1.935688    0.021500
C      -1.824365   -1.847500    0.011169
C      -1.005891   -3.010377    0.000917
N      -0.285241   -3.916179   -0.007319
H       0.862138    1.774660    0.003118
H       0.553217   -0.357800   -0.887944
H       0.568707   -0.366179    0.878495
H      -2.702211    1.299066    0.027855
H      -4.549491   -0.470275    0.037245
