20

C      -0.258128    1.421345   -0.031316
N       0.014667   -0.008980    0.015936
C       1.176523   -0.461780   -0.848128
C       2.159146   -0.121615    0.306442
C       0.905988   -0.503357    1.151749
C       0.666237   -0.003900    2.552571
C       0.782377   -2.020539    0.884962
C       1.000493   -1.968846   -0.642811
O       1.034160   -2.861938   -1.441711
H       0.617634    2.085305    0.063243
H      -0.747584    1.649839   -0.983363
H      -0.960375    1.675572    0.768759
H       1.260202   -0.085744   -1.865947
H       3.072044   -0.715825    0.417811
H       2.403132    0.940277    0.353215
H       0.775627    1.082745    2.619594
H      -0.340431   -0.269644    2.892842
H       1.384703   -0.456183    3.244064
H       1.544541   -2.627528    1.382930
H      -0.207993   -2.411291    1.130414
