19

C       0.041733    1.434715    0.104517
O       0.037407    0.031912   -0.027608
C       0.619452   -0.616100    1.059725
C       0.573681   -2.129907    0.865469
O       0.044089   -2.645058   -0.087018
C       1.246821   -2.939085    1.967593
C       1.079944   -4.454104    1.766853
C       1.739853   -5.225987    2.811722
C       2.292331   -5.839298    3.685492
H       1.064827    1.835697    0.181946
H      -0.432091    1.843911   -0.790297
H      -0.523954    1.763972    0.990559
H       1.673224   -0.313041    1.206749
H       0.101718   -0.376959    2.008201
H       2.311593   -2.674259    1.996986
H       0.843596   -2.631848    2.940592
H       0.012356   -4.698511    1.733241
H       1.473654   -4.730889    0.782971
H       2.774840   -6.397957    4.448496
