16

O      -0.039934    1.320574   -0.325955
N       0.017666   -0.071985   -0.248741
C      -1.107563   -0.591053    0.099290
C      -2.350615    0.121237    0.372107
C      -3.400667   -0.481177    0.943693
C      -3.420388   -1.915281    1.391045
C      -2.250501   -2.730260    0.884185
O      -2.089164   -2.780362   -0.530325
C      -1.101583   -2.069698    0.239284
H       0.849473    1.545262   -0.618784
H      -2.388649    1.168824    0.102433
H      -4.306974    0.090949    1.124786
H      -3.433320   -1.955677    2.490276
H      -4.357093   -2.393266    1.071918
H      -2.082387   -3.681786    1.389458
H      -0.116934   -2.530089    0.257016
