13

N      -0.092749    1.276996    0.172131
C      -0.043112    0.044919   -0.042713
O       1.110392   -0.735347   -0.081585
C       0.707536   -2.031823   -0.455941
C      -0.660579   -2.003543   -0.966017
C      -0.408461   -2.756321    0.356345
C      -1.214998   -1.697840    1.015149
O      -1.775423   -1.524966    2.043962
N      -1.179544   -0.821393   -0.213520
H       0.842131    1.655277    0.325133
H       1.510190   -2.637918   -0.853671
H      -1.104204   -2.333310   -1.893909
H      -0.358973   -3.814793    0.576381
