15

N      -0.114107   -1.053796   -0.011036
C      -0.035553    0.098519    0.028546
C       0.019942    1.537931    0.090342
C       0.585222    2.199047    1.302298
N       1.381064    2.123836    0.023057
C       1.161841    3.609969   -0.169006
C       0.402400    3.692794    1.162067
C      -0.604177    4.604342    1.706817
O       0.756343    4.600828    2.175886
H      -0.787452    2.033459   -0.445302
H       0.858486    1.651827    2.197333
H       2.121714    4.127469   -0.122674
H       0.639259    3.869665   -1.094048
H      -0.895801    5.487193    1.140447
H      -1.342552    4.235459    2.416716
