18

C      -0.074582    1.610603    0.011965
C       0.048474    0.085059   -0.011529
C       0.744760   -0.493495    1.240160
C       0.003885   -0.131148    2.451101
N      -0.615429    0.146128    3.386717
C       0.904844   -2.058096    1.161827
N       1.585857   -2.576720   -0.013925
C       1.615115   -2.538588    2.359389
N       2.202861   -2.889887    3.289181
H       0.909784    2.086039    0.078118
H      -0.557900    1.967951   -0.901360
H      -0.669768    1.948354    0.864791
H      -0.944572   -0.370939   -0.106071
H       0.628704   -0.221700   -0.887733
H       1.750662   -0.061198    1.321483
H      -0.102133   -2.491981    1.179965
H       1.053987   -2.392712   -0.855830
H       2.510176   -2.171248   -0.119586
