19

C       0.279662    1.529881   -0.029400
C      -0.003744    0.027442   -0.111801
C       0.633996   -0.653582   -1.347375
C       0.547608   -2.173638   -1.222275
O       1.068965   -2.808233   -2.394874
C       2.241628   -3.467938   -2.296336
O       2.762101   -4.003154   -3.225552
C      -0.090836   -0.183740   -2.599039
O       0.304392    0.677370   -3.338207
H       1.353312    1.721686    0.064444
H      -0.070911    2.055089   -0.922178
H      -0.217731    1.968154    0.840496
H       0.372377   -0.470420    0.790608
H      -1.087717   -0.150240   -0.125098
H       1.682183   -0.347171   -1.436800
H       1.088310   -2.515692   -0.330995
H      -0.494365   -2.499085   -1.128875
H       2.649284   -3.459190   -1.265669
H      -1.077383   -0.679663   -2.764392
