16

C      -0.017741    1.410706    0.021492
C       1.422327    1.954450   -0.006432
C       2.157194    1.241379   -1.098590
N       3.285680    1.623291   -1.641578
O       3.582522    0.646400   -2.592238
C       2.613895   -0.285927   -2.582294
C       1.672103    0.022485   -1.657079
C       0.374303   -0.580783   -1.204215
O      -0.034306   -0.009491    0.030048
H      -0.534211    1.726369    0.931100
H      -0.583546    1.794366   -0.843095
H       1.431226    3.037847   -0.159582
H       1.904556    1.754605    0.957163
H       2.738350   -1.094934   -3.285686
H      -0.409026   -0.429637   -1.966528
H       0.458435   -1.657135   -1.027432
