20

C      -0.598356    1.538237   -0.372047
C       0.013723    0.219056    0.116363
C       0.778878   -0.493004   -1.006198
C       2.108063   -1.210766   -1.004180
C       2.355938   -2.257167    0.118287
C       1.236634   -2.432213    1.108972
C       1.086719   -2.991276   -0.280314
C       0.832151   -1.948942   -1.405110
H       0.177179    2.222710   -0.733183
H      -1.299292    1.366152   -1.196334
H      -1.143850    2.044643    0.430372
H       0.680965    0.429284    0.958981
H      -0.787445   -0.422478    0.498376
H       0.727999    0.094402   -1.925149
H       2.917833   -0.890513   -1.648949
H       3.339511   -2.673774    0.293411
H       1.443801   -3.195601    1.855024
H       0.643938   -1.614536    1.490822
H       0.957204   -4.051703   -0.454568
H       0.536375   -2.268609   -2.397252
