17

C       0.309202    1.627916    0.008267
C       0.189068    0.104095   -0.002505
C       0.841507   -0.578934   -1.212408
C       0.612173   -2.077813   -1.147087
O       1.140933   -2.679463    0.047888
C       1.152214   -2.032191    1.234305
O       1.507372   -2.596393    2.227103
C       0.742066   -0.522951    1.269303
O       0.888021    0.074460    2.301581
H       1.359762    1.934841   -0.011115
H      -0.189851    2.057716   -0.864917
H      -0.139206    2.044032    0.912099
H      -0.879918   -0.169847   -0.011712
H       0.417851   -0.192164   -2.145473
H       1.917748   -0.366027   -1.234377
H      -0.460559   -2.306026   -1.199922
H       1.107458   -2.601249   -1.967898
