16

N      -0.029466    1.236958    0.316139
C      -0.010599    0.011909    0.023732
O       1.122015   -0.711026   -0.256107
C       0.800135   -1.963223   -0.884843
C      -0.664408   -2.215750   -0.593513
C      -1.072983   -2.132263    0.838593
C      -1.204475   -0.892067   -0.053188
C      -2.494007   -0.365863   -0.372145
C      -3.588399    0.050453   -0.642129
H       0.912013    1.629643    0.268923
H       0.984307   -1.881959   -1.962767
H       1.468252   -2.723695   -0.468528
H      -1.248290   -2.799159   -1.293306
H      -2.008609   -2.597731    1.122302
H      -0.307986   -2.116399    1.608177
H      -4.548939    0.437243   -0.876515
