15

N       0.076635    1.210077   -0.350439
C       0.063928   -0.082521    0.076051
O       1.057190   -0.676366    0.441896
C      -1.327334   -0.750570    0.087308
C      -2.003369   -0.891434   -1.302806
O      -1.740434   -2.230646   -1.706458
C      -1.289004   -2.964481   -0.638908
O      -1.019273   -4.126510   -0.706973
N      -1.239178   -2.137107    0.476863
H       0.946966    1.716061   -0.316670
H      -0.764257    1.720200   -0.558242
H      -1.970732   -0.175746    0.765294
H      -3.085899   -0.740591   -1.231809
H      -1.592935   -0.209819   -2.051640
H      -0.513395   -2.377069    1.139069
