19

C      -0.045890    1.563543    0.057266
C       0.049719    0.060456    0.012964
C       0.496834   -0.616656   -1.274161
O       0.955592   -1.921520   -0.911252
C       1.493531   -1.855285    0.400712
C       0.672887   -0.790017    1.103389
O       1.164824   -0.181685    2.263570
C      -0.824529   -0.812148    0.909322
O      -1.596557   -0.202997    1.898672
H       0.933122    2.032332   -0.088272
H      -0.715525    1.929348   -0.729184
H      -0.450620    1.902328    1.012488
H      -0.304245   -0.751869   -2.008824
H       1.303768   -0.030340   -1.744151
H       1.412409   -2.857916    0.836915
H       2.554806   -1.554255    0.403885
H       1.250676   -0.860283    2.944144
H      -1.305220   -1.692089    0.488044
H      -0.978581    0.118475    2.569052
