24

C       0.016274    1.572877    0.244357
C      -0.010675    0.075720   -0.082785
C      -1.429962   -0.526815   -0.144148
C      -2.169714   -0.095626   -1.420163
C      -1.420641   -2.070409    0.083513
C      -2.847022   -2.641718    0.118065
C      -0.573970   -2.827046   -0.944482
O      -0.789738   -2.348754    1.344548
H       1.045176    1.943450    0.292965
H      -0.510355    2.172024   -0.505731
H      -0.452676    1.772724    1.214798
H       0.498773   -0.093235   -1.040277
H       0.559530   -0.467206    0.676707
H      -1.991987   -0.118695    0.712764
H      -1.693334   -0.510847   -2.314962
H      -3.216702   -0.409710   -1.419447
H      -2.160029    0.993412   -1.522787
H      -3.329994   -2.614871   -0.862342
H      -2.810819   -3.682211    0.452825
H      -3.478732   -2.079818    0.817371
H       0.464647   -2.489935   -0.920606
H      -0.585100   -3.895843   -0.713282
H      -0.962393   -2.692091   -1.957269
H      -1.319827   -1.931653    2.032801
