21

O      -0.074190    1.512220    0.130832
C       0.025392    0.090701    0.082894
C      -1.393800   -0.426455   -0.138770
C      -1.575205   -1.914192    0.169119
C      -1.006153   -2.903864   -0.855254
O      -1.729511   -2.838791   -2.095283
C       0.480090   -2.844542   -1.131169
C       1.294467   -1.789144   -1.215712
C       1.025753   -0.318972   -1.005874
H       0.808291    1.870245    0.271338
H       0.385512   -0.294812    1.051844
H      -2.048951    0.157963    0.515133
H      -1.712858   -0.205735   -1.165567
H      -1.143751   -2.144139    1.152292
H      -2.646820   -2.130307    0.237701
H      -1.228176   -3.907582   -0.473652
H      -1.308736   -2.165071   -2.638446
H       0.911750   -3.810139   -1.387405
H       2.317293   -2.002390   -1.522962
H       0.691126    0.134739   -1.951126
H       1.984457    0.167499   -0.779325
