17

O      -0.376979    1.408385    0.043607
C      -0.096435    0.054538   -0.045980
C      -0.134564   -0.822930    1.173181
C      -1.271708   -0.900717    0.190432
O      -2.492749   -0.287225    0.523901
C      -3.410412   -0.583768   -0.550537
C      -3.029016   -1.985521   -1.037074
C      -1.530791   -2.049288   -0.715054
O      -0.719117   -2.845756   -1.116734
H      -1.288435    1.479818    0.363863
H       0.604334   -0.182642   -0.839907
H       0.517907   -1.689650    1.207376
H      -0.354896   -0.346561    2.122650
H      -4.419024   -0.506304   -0.141935
H      -3.293789    0.156068   -1.354222
H      -3.534466   -2.764338   -0.454622
H      -3.222011   -2.170577   -2.095014
