27

C       0.032488    1.574239    0.201530
C       0.015951    0.042617    0.040661
C       0.544609   -0.616187    1.328580
C      -1.437007   -0.414882   -0.189294
C       0.852396   -0.393197   -1.189173
C       2.349638   -0.049303   -1.177357
C       3.062255   -0.535390   -2.423510
C       3.072243    0.303879   -3.677154
C       4.341901    0.115161   -2.881521
H       1.036743    1.952378    0.416146
H      -0.327241    2.071326   -0.706522
H      -0.616840    1.883147    1.028282
H      -0.100360   -0.372503    2.180006
H       0.569654   -1.707673    1.232904
H       1.555314   -0.278391    1.577242
H      -1.856476    0.038240   -1.094487
H      -1.496885   -1.503090   -0.302410
H      -2.077196   -0.131158    0.653530
H       0.747366   -1.481053   -1.306447
H       0.403302    0.048761   -2.088914
H       2.488554    1.035854   -1.094068
H       2.831527   -0.488762   -0.294931
H       2.999377   -1.610103   -2.580816
H       2.987378   -0.191046   -4.638418
H       2.591662    1.276552   -3.637379
H       4.711064    0.960920   -2.310000
H       5.123432   -0.510871   -3.298185
