18

C      -0.101894    1.474453    0.006907
C       0.175924   -0.015210   -0.071506
O       0.504858   -0.468315    1.241139
C       0.747818   -1.855212    1.321233
C       2.002872   -2.225552    0.608610
N       2.962761   -2.497366    0.026278
C       0.815870   -2.266043    2.720283
C       0.863871   -2.628482    3.865391
C       0.928762   -3.055343    5.253908
H       0.781093    2.010110    0.365469
H      -0.363887    1.859613   -0.982805
H      -0.930423    1.677214    0.690969
H      -0.707120   -0.562582   -0.439209
H       1.006520   -0.222887   -0.761410
H      -0.065766   -2.409359    0.819650
H       0.131309   -3.768266    5.488091
H       1.887579   -3.537207    5.471857
H       0.823036   -2.199513    5.928891
