17

C       0.087663    1.550833   -0.383221
C       0.100202    0.038766   -0.150773
C       0.809639   -0.754396   -1.275684
N       2.223293   -0.466407   -1.404055
C       2.704135    0.383449   -2.352737
O       2.023153    1.115428   -3.040247
C       0.631007   -2.238014   -1.015029
O       1.543100   -3.002960   -0.824677
H       1.102260    1.954108   -0.422443
H      -0.400987    1.802816   -1.328375
H      -0.447170    2.053624    0.428199
H       0.592500   -0.193921    0.801631
H      -0.929735   -0.332773   -0.070924
H       0.318947   -0.506751   -2.227438
H       2.839364   -1.180254   -1.037485
H       3.808857    0.346431   -2.417862
H      -0.425973   -2.576052   -0.974624
