14

O      -0.037195    0.048248    0.396973
C      -0.075223    1.205444    0.098431
C      -1.184695    2.267691   -0.095652
C      -0.023510    3.284263   -0.022082
C       0.532792    3.712926    1.366608
C       1.636039    2.624823    1.193395
N       0.973541    2.152659   -0.069175
H      -1.703952    2.227880   -1.056572
H      -1.922635    2.285103    0.709421
H       0.042307    4.025271   -0.820548
H       0.890087    4.742224    1.428739
H      -0.151981    3.528702    2.198584
H       2.634627    3.020408    0.994556
H       1.702541    1.848104    1.958859
