17

C       0.641180    1.625488    0.062050
C       0.610621    0.116225   -0.166534
N       0.631735   -0.566310    1.132602
C      -0.611716   -0.859226    1.789049
C       0.240282   -1.984418    1.253693
C      -0.285013   -2.751434    0.094062
O      -1.046683   -2.339536   -0.751924
C       0.218110   -4.141303    0.014924
N       0.601135   -5.231148   -0.039294
H       1.513378    1.912213    0.655742
H       0.682344    2.150124   -0.896835
H      -0.256601    1.961679    0.590832
H      -0.258555   -0.163514   -0.774304
H       1.508114   -0.200633   -0.709133
H      -0.643151   -0.714504    2.865638
H      -1.540955   -0.671553    1.252864
H       0.862913   -2.559279    1.933318
