19

C       0.126664    1.551653   -0.062565
C       0.045594    0.035612    0.021838
O       0.712095   -0.514412   -1.116964
C       1.301506   -1.764802   -0.784436
C       1.529588   -1.719928    0.710203
N       2.199322   -0.469233    1.134574
C       0.726834   -0.593473    1.236200
C       0.036927   -0.576800    2.573433
H       1.169446    1.868256    0.014105
H      -0.279898    1.899883   -1.015791
H      -0.450494    2.015437    0.744351
H      -1.011808   -0.285046    0.028427
H       0.634674   -2.607351   -1.032878
H       2.222013   -1.863093   -1.369456
H       1.684645   -2.636611    1.270228
H       2.602748   -0.610551    2.058925
H      -0.035707    0.442588    2.969715
H      -0.980620   -0.975667    2.497962
H       0.581591   -1.181690    3.305753
