15

O      -0.163937    1.414386    0.442922
C      -0.058384    0.056535    0.157432
C      -0.612624   -0.994390    1.079363
C      -1.255398   -0.764907   -0.279816
C      -2.595497   -0.108732   -0.383191
C      -3.705030   -0.395265    0.537775
O      -2.943436    0.811710    0.665992
H      -1.028258    1.565202    0.846070
H       0.889547   -0.144399   -0.331130
H      -0.060374   -1.912851    1.245957
H      -1.157194   -0.629446    1.944948
H      -1.083689   -1.515582   -1.046846
H      -2.853647    0.258590   -1.377143
H      -4.733913   -0.250754    0.213902
H      -3.557662   -1.123972    1.332319
