21

C      -0.021208    1.562360   -0.098762
C      -0.026771    0.062093    0.035063
O       1.239661   -0.606744   -0.101878
C       0.597713   -0.646618    1.160611
C       1.168290   -0.078679    2.463033
C       0.365977   -1.179910    3.219375
C       0.146308   -1.929920    1.870887
C      -1.222198   -2.502397    1.566850
O      -1.438705   -3.596429    2.446810
H       0.802580    2.003159    0.467909
H       0.092185    1.853442   -1.148318
H      -0.964199    1.984542    0.266163
H      -0.839860   -0.443526   -0.490469
H       2.249969   -0.230518    2.522026
H       0.947242    0.964424    2.702226
H       0.892785   -1.725750    4.002396
H      -0.574420   -0.800712    3.628509
H       0.900789   -2.712886    1.736168
H      -1.988680   -1.721675    1.705584
H      -1.264813   -2.822789    0.512824
H      -2.306980   -3.965680    2.261044
