16

C      -0.065228    1.510963    0.098719
C       0.023095   -0.007331   -0.035745
C       0.742361   -0.427006   -1.294318
O       1.206989    0.312739   -2.122833
N       0.863225   -1.834327   -1.485455
C       1.462556   -2.477279   -2.530067
N       1.383562   -3.775292   -2.371394
C       0.708687   -3.893420   -1.182236
N       0.372438   -2.759451   -0.608165
H       0.929473    1.962651    0.126082
H      -0.601682    1.950781   -0.745654
H      -0.591300    1.776469    1.019159
H       0.539030   -0.465957    0.815610
H      -0.966978   -0.477552   -0.041410
H       1.920904   -1.940141   -3.344572
H       0.465290   -4.847981   -0.739584
