21

C      -0.256959    1.605478    0.091879
C       0.010647    0.091322    0.025638
C       0.851102   -0.360864   -1.156602
C       1.840306   -1.183735   -0.793734
C       1.912556   -1.374688    0.689763
C       2.289929   -2.722357    1.257802
C       2.224348   -0.087142    1.427591
O       2.832376    1.019926    0.832262
C       0.778503   -0.477955    1.224278
H       0.674723    2.162533    0.210840
H      -0.764199    1.953389   -0.814573
H      -0.900961    1.842843    0.944462
H      -0.965892   -0.412187   -0.040976
H       0.638458   -0.042366   -2.172141
H       2.546281   -1.655100   -1.470373
H       3.302006   -3.013162    0.951683
H       2.269438   -2.707687    2.351964
H       1.601628   -3.506700    0.921897
H       2.602366   -0.207998    2.438934
H       2.743389    0.915839   -0.124386
H       0.212497   -0.771689    2.102543
