14

N      -0.565477    1.207410    0.234848
C       0.323641    0.094223   -0.133899
C       0.889679   -0.513461    1.104459
C       0.374844   -0.705825    2.355515
N      -0.891575   -0.454786    2.855239
N       1.360637   -1.304922    3.101589
N       2.401075   -1.483056    2.399467
O       2.148015   -0.992043    1.108018
H      -0.011705    2.006464    0.528915
H      -1.101996    1.503098   -0.574029
H      -0.284169   -0.646994   -0.669627
H       1.149892    0.368534   -0.806408
H      -1.352899    0.282849    2.335161
H      -0.894709   -0.292433    3.853046
