20

C      -0.580875    1.365189    0.047639
C      -0.051241   -0.055376    0.017955
O       1.013934   -0.216448   -0.943907
C       1.964245   -0.597079    0.073470
C       0.891321   -0.538048    1.176830
C       1.090742    0.355603    2.364582
C       0.021653    0.404686    3.425061
N       2.172352    1.035646    2.421171
O       2.227946    1.823046    3.581340
H       0.208718    2.073512    0.313072
H      -0.964513    1.630833   -0.942331
H      -1.400529    1.463959    0.768063
H      -0.868304   -0.759246   -0.191202
H       2.389381   -1.589942   -0.113707
H       2.771256    0.132762    0.179575
H       0.593801   -1.528518    1.535366
H       0.431374    0.093980    4.391889
H      -0.340593    1.428892    3.557064
H      -0.820631   -0.242498    3.172317
H       3.081577    2.259105    3.489202
