23

C       0.263135    1.532672   -0.081353
C       0.046577    0.017477   -0.026994
C       0.614767   -0.609291    1.251716
C       0.556633   -2.152501    1.305227
C      -0.881667   -2.688319    1.241323
O       1.292623   -2.689370    0.183392
C       2.409100   -3.454119    0.622491
C       2.346648   -3.413646    2.123172
C       1.305548   -2.686010    2.505473
H       1.329514    1.782327   -0.045418
H      -0.147858    1.961086   -1.001014
H      -0.220549    2.034937    0.764346
H      -1.026330   -0.194755   -0.105219
H       0.522330   -0.460619   -0.889926
H       1.666587   -0.316230    1.358410
H       0.090149   -0.207937    2.129899
H      -1.349337   -2.428028    0.288691
H      -0.880568   -3.777560    1.334197
H      -1.491287   -2.271934    2.050521
H       2.340541   -4.479859    0.226193
H       3.344250   -3.022309    0.230445
H       3.062781   -3.916223    2.761250
H       0.998333   -2.471975    3.521727
