19

O       0.098630    0.052334    0.595287
C       0.351525    0.837986   -0.284624
C       1.203678    2.067292   -0.153664
C       0.623050    3.424074   -0.663228
C       1.350995    4.115865    0.521803
C       1.524233    2.734763    1.220083
C       0.502546    2.477651    2.344477
C       0.749305    3.333351    3.499405
C       0.974536    4.050236    4.438088
H      -0.054632    0.686316   -1.313755
H       2.135448    1.852337   -0.695010
H       0.891288    3.733744   -1.674937
H      -0.465623    3.466803   -0.565175
H       2.308818    4.544297    0.216376
H       0.793590    4.871378    1.079318
H       2.525249    2.529241    1.605372
H      -0.516626    2.652503    1.975009
H       0.535365    1.423591    2.634649
H       1.162896    4.672744    5.277158
