15

O      -0.015229   -0.053700   -0.342070
C      -0.039370    1.112319   -0.099361
C      -1.134876    2.156333    0.220447
N      -0.046307    3.105547    0.604039
C       1.037049    2.208366    0.114208
C       2.075212    2.100181    1.253232
N       1.373189    2.773500    2.326884
C       0.125886    3.253592    2.008707
O      -0.697697    3.701384    2.769789
H      -1.698971    2.485224   -0.657548
H      -1.829881    1.919180    1.031459
H       1.482402    2.535960   -0.829785
H       2.312100    1.055827    1.490322
H       3.008528    2.609113    0.986704
H       1.701150    2.816553    3.276248
