21

C      -0.031789    1.436290    0.127729
C      -0.003810   -0.091667    0.039145
C       0.645686   -0.583189   -1.237089
O       2.017513   -0.201223   -1.295244
C       2.643183   -1.161819   -2.114991
C       3.088818   -2.446435   -1.439939
C       3.255439   -2.575274    0.054287
C       1.733127   -2.354169   -2.116637
O       0.639627   -2.005224   -1.298318
H       0.982096    1.844389    0.104881
H      -0.588689    1.873377   -0.708364
H      -0.512422    1.762631    1.054174
H       0.540865   -0.519534    0.887161
H      -1.020087   -0.499908    0.068307
H       0.126092   -0.182015   -2.127366
H       3.147133   -0.763035   -2.989347
H       3.816382   -3.000437   -2.031281
H       2.501596   -1.994492    0.586072
H       3.160806   -3.620500    0.365898
H       4.241866   -2.216841    0.365853
H       1.482651   -2.943737   -2.992473
