19

C      -0.216850    1.468759   -0.058162
C      -0.062319    0.021542   -0.031169
C       0.060810   -1.176073    0.002789
C       0.174592   -2.641233    0.034533
O      -1.081194   -3.260235    0.253283
C       0.828249   -3.181730   -1.252740
C       2.118966   -2.532650   -1.687476
C       0.507075   -4.555947   -1.656097
O      -0.134359   -3.431604   -2.287631
H       0.681142    1.970133    0.319276
H      -0.398629    1.832548   -1.075266
H      -1.059989    1.786484    0.564903
H       0.804584   -2.934776    0.884223
H      -1.558733   -3.167157   -0.583331
H       2.885745   -2.647943   -0.913326
H       2.484261   -2.991879   -2.608988
H       1.972271   -1.463471   -1.859679
H       1.205822   -5.098784   -2.290334
H      -0.143288   -5.161416   -1.031349
