17

O       0.277119    1.331311    0.140113
C       0.090038   -0.056686    0.012855
C       0.278471   -0.889302    1.323628
C      -1.208023   -1.288583    1.260397
C      -1.394940   -0.496754   -0.019165
N      -1.573687   -1.931440    0.015948
C      -0.690011   -2.844927   -0.702168
C      -0.823779   -4.204134   -0.167791
N      -0.908248   -5.274731    0.256745
H      -0.267714    1.645470    0.870927
H       0.698751   -0.350958   -0.847042
H       1.013610   -1.700037    1.331403
H       0.495640   -0.222073    2.161648
H      -1.874069   -1.418320    2.106051
H      -2.217336    0.123597   -0.363120
H      -0.994354   -2.851588   -1.754559
H       0.377424   -2.581912   -0.678549
