18

O      -0.038623    1.455388   -0.140197
C      -0.007729    0.041174   -0.030479
C      -0.021563   -0.633269    1.384763
C      -1.520964   -0.150666    1.526095
O      -1.839947    1.164923    1.832578
C      -1.393933   -0.654865    0.036821
C      -0.617649   -1.834925    0.641640
C      -0.050699   -3.081155    0.112261
N      -1.150081   -3.089193    1.125050
H       0.850315    1.789357    0.018925
H       0.704691   -0.382774   -0.748222
H       0.770417   -0.634456    2.136145
H      -2.139869   -0.789700    2.159298
H      -1.327289    1.723663    1.231246
H      -2.158763   -0.683546   -0.738242
H      -0.340568   -3.454893   -0.866048
H       0.945297   -3.378229    0.432109
H      -0.771137   -3.313174    2.042694
