14

O       0.461745    0.651877   -0.875027
C      -0.139311    0.257694    0.337003
C      -1.471888   -0.434992    0.163794
C      -1.975769   -0.787291   -1.045240
C      -3.259416   -1.446143   -1.109014
O      -3.877406   -1.832570   -2.078590
N      -3.784549   -1.618446    0.192879
N      -3.250453   -1.260971    1.363731
N      -2.118638   -0.676724    1.367183
H      -0.012315    1.418782   -1.212906
H       0.553311   -0.441533    0.820395
H      -0.272574    1.093006    1.039594
H      -1.434629   -0.597467   -1.963031
H      -4.685544   -2.074796    0.271467
