21

C      -0.045159    1.557133    0.053887
C      -0.038003    0.024671   -0.009223
C       0.502616   -0.505106   -1.362425
C       1.990931   -0.865510   -1.275754
C       2.178288   -1.884348   -0.148758
C       1.986655   -0.911705    1.022494
C       2.900869    0.231963    0.568816
O       2.768864    0.273773   -0.858993
O       0.620932   -0.541278    1.141011
H       0.922600    1.979866   -0.224773
H      -0.792748    1.949260   -0.644618
H      -0.310182    1.889939    1.061142
H      -1.074290   -0.312222    0.104881
H      -0.047004   -1.402158   -1.670304
H       0.342306    0.253407   -2.134833
H       2.376865   -1.186017   -2.246892
H       1.440306   -2.688094   -0.149970
H       3.185734   -2.310765   -0.152864
H       2.266596   -1.312470    1.999188
H       2.611134    1.193712    1.000785
H       3.945914    0.025418    0.839408
