19

C       0.294631    1.641022    0.001758
C       0.082193    0.126093   -0.020638
C       0.712713   -0.610036   -1.182930
O       2.147778   -0.613023   -1.123056
C       1.444893   -1.795147   -0.708878
C       1.343945   -1.916188    0.796287
C       2.658186   -2.184645    1.532047
C       0.702881   -0.573678    1.206972
O       0.695707   -0.130719    2.325432
H       1.354641    1.873625   -0.132372
H      -0.271315    2.132792   -0.794606
H      -0.026742    2.045730    0.964505
H      -0.996019   -0.095824   -0.000631
H       0.288484   -0.546280   -2.181747
H       1.602041   -2.672408   -1.331283
H       0.615349   -2.703994    1.042652
H       3.422744   -1.473818    1.206633
H       2.511656   -2.062947    2.607998
H       3.021928   -3.197665    1.337603
