17

C      -0.045122    1.517044    0.155398
N      -0.037537    0.072585    0.144355
C      -1.264225   -0.642654    0.524880
C      -0.392688   -1.698363    1.271695
N      -0.127378   -2.873101    0.451491
C       0.745004   -0.637012    1.166720
C      -0.827205   -2.026815    2.634800
N      -1.166125   -2.330893    3.698428
H       0.956517    1.893167   -0.077217
H      -0.728325    1.888433   -0.615423
H      -0.356778    1.945690    1.127259
H      -1.914448   -0.084624    1.215833
H      -1.857086   -1.028144   -0.310971
H       0.589583   -3.446633    0.888243
H      -0.961828   -3.450990    0.392652
H       1.714595   -1.018114    0.829989
H       0.871392   -0.076800    2.105759
