20

C       0.586870    1.444884   -0.421858
N       0.158585    0.108378   -0.018286
C       1.185066   -0.844604    0.393729
C       0.229010   -0.277945    1.386500
C       0.688721    0.644380    2.503305
C       0.763839   -0.090922    3.866996
O       1.939161    0.426166    4.468468
C       2.805991    0.656353    3.391806
O       2.014409    1.160898    2.332458
H       1.457146    1.827751    0.126192
H       0.827205    1.420309   -1.489430
H      -0.246811    2.141949   -0.285004
H       1.069516   -1.861535    0.027081
H       2.210139   -0.485758    0.457534
H      -0.618606   -0.890995    1.698903
H       0.014161    1.507782    2.568876
H      -0.082481    0.117451    4.524024
H       0.844466   -1.178469    3.715360
H       3.548562    1.405649    3.679647
H       3.305080   -0.279926    3.081903
