15

N      -0.163599    1.242330   -0.462340
C      -0.073873    0.063576   -0.051234
O       1.003878   -0.632397    0.469613
C       0.207109   -1.851642    0.646302
C      -0.160374   -2.123310    2.097814
C      -1.321524   -1.138054    2.338009
O      -2.007650   -1.053647    1.085744
C      -1.037885   -1.121966    0.073047
H       0.724729    1.740095   -0.373533
H       0.653107   -2.682842    0.100792
H      -0.507278   -3.157309    2.192032
H       0.682315   -1.973118    2.776118
H      -2.041317   -1.473359    3.086836
H      -0.940992   -0.150547    2.633777
H      -1.504453   -1.458409   -0.852518
