16

C      -0.729178    1.399614    0.349364
C      -0.252772   -0.058574    0.215098
N      -0.223739   -0.435763   -1.190729
C       0.848164   -0.856542   -1.722831
N       0.858092   -1.198455   -3.064176
C       1.973102   -1.663711   -3.732568
O       3.057412   -1.823238   -3.230685
C       1.019340   -0.253474    0.940712
N       2.029835   -0.412970    1.479015
H      -0.002746    2.079455   -0.102512
H      -1.682514    1.507219   -0.172151
H      -0.858192    1.669028    1.400458
H      -0.995955   -0.703228    0.703047
H       1.814181   -0.992806   -1.232258
H      -0.013796   -1.094355   -3.564607
H       1.748988   -1.874471   -4.794651
