21

C       0.057154    1.544897    0.005720
C       0.015273    0.015850    0.027611
C      -1.412480   -0.557332    0.014382
C      -1.408571   -2.087333   -0.171754
O      -0.859367   -2.756949    0.956848
N      -2.107972   -0.150268    1.242873
C      -3.563024   -0.203360    1.160387
C      -4.171883    0.260224    2.411815
N      -4.657072    0.606940    3.400872
H       1.085094    1.913015    0.073638
H      -0.376048    1.936677   -0.921532
H      -0.514156    1.951437    0.843415
H       0.562912   -0.387348   -0.834331
H       0.532544   -0.348405    0.925733
H      -1.952415   -0.117146   -0.836161
H      -2.433445   -2.462331   -0.264147
H      -0.880541   -2.355782   -1.098805
H       0.095282   -2.638601    0.941062
H      -1.790943   -0.758518    1.993951
H      -3.894200    0.463583    0.354767
H      -3.986034   -1.198632    0.936477
