21

C      -0.366396    1.487013    0.106252
C       0.193785    0.060323    0.041474
C       0.774248   -0.301343   -1.303797
O       1.793679   -1.321957   -1.296505
C       2.155377   -0.002258   -1.732458
C       2.205165    0.177517   -3.243039
C       0.784129   -0.107794   -3.742422
C       0.171141   -1.466404   -3.525530
C      -0.109259   -0.357029   -2.539270
H       0.410565    2.226269   -0.114366
H      -1.180465    1.638142   -0.609698
H      -0.761455    1.701660    1.103548
H       0.982485   -0.068326    0.790079
H      -0.594669   -0.660303    0.294328
H       2.884509    0.502129   -1.100048
H       2.480253    1.214737   -3.468202
H       2.962225   -0.466735   -3.704001
H       0.423967    0.474638   -4.583451
H      -0.636798   -1.749798   -4.191974
H       0.802691   -2.279993   -3.191580
H      -1.107145    0.058827   -2.468907
