13

N       0.820319    0.146712    0.738045
C      -0.176691    0.227276   -0.174276
O      -0.268059    1.077813   -1.028975
C      -1.291934   -0.866676   -0.023931
C      -0.804636   -2.135991    0.518048
C      -0.375295   -3.166035    0.964041
C      -2.388414   -0.317721    0.777600
C      -3.278745    0.146056    1.435512
H       1.571829    0.814195    0.684192
H       0.899330   -0.643389    1.355698
H      -1.645910   -1.021127   -1.050292
H      -0.013842   -4.087981    1.348782
H      -4.070177    0.555444    2.013376
