18

C      -0.205819    1.576172   -0.143641
C      -0.043260    0.068294   -0.015199
C       1.158982   -0.581500   -0.737902
O       1.690042   -1.100573    0.499199
C       0.602738   -0.535164    1.267019
C       1.107053    0.397405    2.369500
C       1.945770   -0.355083    3.382528
O       1.730577   -0.369483    4.567969
H       0.731042    2.107940    0.049827
H      -0.526814    1.836851   -1.157763
H      -0.961562    1.959515    0.549688
H      -0.990403   -0.423275   -0.251679
H       0.919493   -1.381861   -1.448050
H       1.853701    0.120947   -1.217155
H      -0.003390   -1.332452    1.718989
H       1.740373    1.173203    1.920638
H       0.272931    0.876238    2.891366
H       2.799257   -0.914365    2.942923
