22

C       0.387341    1.395177   -0.704746
C       0.010181    0.164418    0.120833
C       0.818439   -1.082608   -0.300168
C       0.180109    0.414641    1.615545
O       0.753420    1.385329    2.055716
C      -0.391831   -0.632187    2.586421
N       0.682701   -1.528476    3.007730
C       1.540170   -1.032397    4.082101
C       0.548256   -2.111409    4.341728
H       1.438055    1.655273   -0.549912
H       0.231300    1.202743   -1.770655
H      -0.209240    2.265561   -0.418828
H      -1.054649   -0.067625   -0.031678
H       1.891834   -0.887937   -0.207780
H       0.588034   -1.952370    0.319118
H       0.607167   -1.328986   -1.345103
H      -0.841232   -0.081099    3.429678
H      -1.171484   -1.234374    2.108046
H       2.595428   -1.268779    3.983606
H       1.329853   -0.042005    4.477088
H      -0.334364   -1.850067    4.922954
H       0.865336   -3.145870    4.435675
