19

C      -0.047417    1.562534    0.008861
C       0.017367    0.027854    0.006691
C       0.675423   -0.510396   -1.275229
C       0.986475   -2.007098   -1.163507
C       1.965456   -2.278598   -0.011553
C       1.605908   -1.496258    1.225529
C       0.730971   -0.490936    1.234347
H       0.958997    1.995591   -0.004078
H      -0.586016    1.933693   -0.869639
H      -0.560764    1.937840    0.900627
H      -1.021145   -0.340505    0.038037
H       0.027767   -0.312412   -2.137130
H       1.609717    0.040720   -1.451910
H       0.053198   -2.555204   -0.979813
H       1.394066   -2.388375   -2.106032
H       1.990370   -3.350597    0.222709
H       2.991629   -2.025413   -0.318822
H       2.095463   -1.789206    2.151988
H       0.505070    0.014769    2.171927
