16

O       0.014629    1.400218   -0.121669
C       0.019561    0.007177    0.025558
C       0.255547   -0.852944   -1.237879
O      -1.012464   -1.519491   -1.061088
C      -1.364330   -0.668725    0.058399
C      -1.409676   -1.450578    1.347795
N      -2.427952   -2.013091    1.830670
O      -0.151931   -1.488638    1.895085
C       0.697668   -0.485794    1.321334
H       0.920565    1.705044   -0.244795
H       0.282220   -0.260153   -2.160104
H       1.098144   -1.554247   -1.217772
H      -2.253538   -0.064627   -0.126539
H      -2.196267   -2.498724    2.699851
H       1.684120   -0.931480    1.162632
H       0.786608    0.354459    2.019979
