17

C      -0.280807    1.373254    0.081309
O      -0.212924   -0.049362    0.255906
C       0.907501   -0.504032    0.845275
O       1.813879    0.209411    1.206728
C       0.865392   -1.989121    0.966104
C       2.163310   -2.734627    1.055231
C       1.283908   -2.677736    2.279928
C       1.726689   -1.906964    3.474233
O       1.455697   -2.242689    4.602062
H       0.546593    1.723902   -0.540272
H      -1.235712    1.565155   -0.407333
H      -0.234949    1.881052    1.047698
H       0.032173   -2.456629    0.457171
H       2.251705   -3.681311    0.536281
H       3.056948   -2.119578    1.068874
H       0.707587   -3.561589    2.530983
H       2.338603   -1.010191    3.259674
