19

C       0.032063    1.550119    0.000769
C       0.019387    0.015543    0.033344
C       0.770965   -0.494644    1.269862
C      -1.429230   -0.554823   -0.019729
C      -2.241957   -0.051112   -1.231769
C      -1.421655   -2.018640   -0.013781
C      -1.422325   -3.221053   -0.044821
H       1.056906    1.922313    0.097928
H      -0.376439    1.953398   -0.929225
H      -0.548591    1.965801    0.833601
H       0.539360   -0.353727   -0.861184
H       0.294185   -0.136154    2.190614
H       0.790312   -1.586452    1.304723
H       1.804151   -0.132936    1.271162
H      -1.942489   -0.218523    0.894095
H      -3.221422   -0.535017   -1.260365
H      -2.397712    1.028952   -1.182196
H      -1.724439   -0.285601   -2.167500
H      -1.425542   -4.282725   -0.057831
