21

C       0.057612    1.658165    0.126251
C       0.019743    0.125384    0.107916
C       0.589801   -0.512031   -1.186111
C       1.391988   -1.756593   -0.752230
C       0.906505   -3.172320   -1.185255
C       2.228579   -3.247380   -1.965989
O       2.620379   -1.935430   -1.518280
C       1.608935   -1.525008    0.717061
C       0.863119   -0.525460    1.182832
H       1.083835    2.023355    0.010770
H      -0.543120    2.075596   -0.688598
H      -0.337109    2.054001    1.068331
H      -1.027021   -0.185408    0.243392
H      -0.178689   -0.739130   -1.930012
H       1.304687    0.174690   -1.652336
H       0.802594   -3.889208   -0.368705
H      -0.004342   -3.181057   -1.786982
H       2.932691   -4.021241   -1.636017
H       2.139096   -3.297884   -3.058384
H       2.277928   -2.152168    1.296283
H       0.824756   -0.200536    2.218216
