19

C       0.488822    1.514169    0.060921
C      -0.064918    0.115008   -0.114573
C       0.454031   -0.736433   -1.294590
C       0.984245   -1.679224   -0.204857
C       0.604074   -3.194200   -0.060532
C       2.102714   -3.511670    0.002272
O       2.688084   -2.988485   -1.199268
C       2.464025   -2.090211   -0.104444
O       0.498381   -0.826054    0.842961
H       1.578130    1.518431   -0.046461
H       0.062359    2.190048   -0.688639
H       0.239665    1.902980    1.053243
H      -1.159051    0.126198   -0.026286
H      -0.309940   -1.159080   -1.948562
H       1.227115   -0.263799   -1.904435
H       0.088774   -3.348274    0.890915
H       0.048725   -3.663478   -0.876559
H       2.616502   -4.333783    0.485976
H       3.306313   -1.524785    0.278665
