16

N      -0.148650    1.278911    0.317753
C       0.013744    0.079619   -0.057647
O       1.168914   -0.368924   -0.611405
C       1.355460   -1.785059   -0.807172
C       0.114222   -2.516071   -1.293148
C      -0.927486   -2.925547   -0.287379
O      -0.834653   -2.064709    0.849190
C      -1.122302   -0.904012    0.000794
C      -1.223880   -1.800915   -1.235232
H       0.711289    1.813694    0.172605
H       2.156928   -1.853785   -1.545195
H       1.708184   -2.216326    0.135660
H       0.239112   -3.176266   -2.145405
H      -1.337952   -3.918037   -0.150981
H      -2.034506   -0.404244    0.323961
H      -1.906173   -1.695796   -2.066052
