20

C      -0.300777    1.580819    0.082030
C       0.007187    0.100516   -0.008424
C       0.623058   -0.486787   -1.312924
O       1.383222    0.455466   -2.061563
C       2.781279    0.272802   -1.825738
C       2.903607   -0.457915   -0.493992
C       2.410229    0.313903    0.760916
N       1.128575   -0.473154    0.828351
C       1.588888   -1.260807   -0.388567
H       0.482748    2.187033   -0.377614
H      -1.236321    1.802054   -0.441776
H      -0.419068    1.882871    1.128130
H      -0.884189   -0.480337    0.257213
H      -0.046313   -1.033605   -1.984386
H       3.228754   -0.321098   -2.637764
H       3.256222    1.260345   -1.823801
H       3.846363   -0.995903   -0.384848
H       3.011316    0.124504    1.654840
H       2.293613    1.395989    0.649051
H       1.573916   -2.350509   -0.351443
