23

C      -0.145618    1.636990   -0.052123
C      -0.058145    0.104113   -0.017678
C       0.849363   -0.413248   -1.145616
C       0.675643   -1.896596   -1.484323
C       1.286355   -2.904008   -0.503853
O       2.723201   -2.835881   -0.525572
C       0.800375   -2.868080    0.926190
C       0.459245   -1.826349    1.689630
C       0.380201   -0.349984    1.384654
H       0.842300    2.090189    0.094744
H      -0.531430    1.988901   -1.014167
H      -0.805368    2.019467    0.734007
H      -1.066862   -0.295968   -0.195105
H       0.636831    0.167699   -2.051166
H       1.902063   -0.208195   -0.904156
H      -0.392583   -2.124482   -1.597744
H       1.144802   -2.096112   -2.454518
H       1.062510   -3.901151   -0.902368
H       2.987966   -2.202602    0.148695
H       0.829786   -3.839119    1.417170
H       0.235988   -2.059331    2.730512
H       1.361097    0.102580    1.607069
H      -0.302637    0.101442    2.115059
