18

C      -0.656740    1.233150    0.174856
C       0.435212    0.228489   -0.140350
O       1.428771    0.127465    0.541710
C       0.235853   -0.689438   -1.358381
C       1.563398   -1.212915   -1.893160
C      -0.860363   -1.791538   -1.104257
C      -1.629919   -1.140590   -2.276900
O      -2.640279   -1.369008   -2.881361
N      -0.678343   -0.150272   -2.384057
H      -0.640604    2.041026   -0.565047
H      -1.653901    0.787021    0.120588
H      -0.480258    1.651424    1.166223
H       2.130852   -1.685508   -1.089847
H       1.391990   -1.935975   -2.695307
H       2.174213   -0.394574   -2.287926
H      -0.520236   -2.810805   -1.292740
H      -1.375019   -1.749107   -0.142568
H      -0.516539    0.522701   -3.120667
