20

C       0.122812    1.574642    0.039226
C      -0.031297    0.059284   -0.004175
C       0.697198   -0.545274   -1.225068
C       0.259497   -1.938247   -1.606601
N      -0.270019   -2.155827   -2.737994
O       0.422095   -2.956796   -0.711838
C       1.045058   -2.735359    0.555140
C       0.271758   -1.796015    1.477048
O       0.489086   -0.426541    1.227950
H       1.181749    1.850790    0.065355
H      -0.335976    2.034779   -0.840021
H      -0.357060    1.973272    0.936408
H      -1.101956   -0.197580   -0.070297
H       0.507463    0.071186   -2.104875
H       1.775188   -0.515997   -1.023068
H      -0.506089   -3.147225   -2.824920
H       1.087924   -3.729405    1.009196
H       2.072958   -2.372984    0.429787
H      -0.800180   -2.047954    1.420735
H       0.607906   -1.967271    2.505488
