18

C       0.110363    1.453270    0.120869
C      -0.061062   -0.020996    0.049120
N      -1.144787   -0.715854    0.182762
C      -0.742533   -2.042352    0.022792
C      -1.732811   -3.166137    0.115752
O      -1.418447   -4.271655   -0.723473
C       0.596752   -2.076885   -0.207401
C       1.600007   -3.146526   -0.438082
O       1.042428   -0.774841   -0.195477
H       0.806217    1.731646    0.919326
H       0.511301    1.851110   -0.817318
H      -0.858553    1.912773    0.317306
H      -1.764624   -3.577915    1.131247
H      -2.732198   -2.760239   -0.095127
H      -1.393234   -3.943376   -1.628708
H       2.154462   -2.981109   -1.368913
H       2.334218   -3.190947    0.374913
H       1.084878   -4.106008   -0.500571
