23

C      -0.232206    1.586271    0.863728
C      -0.057373    0.112123    0.527444
C       0.950240   -0.396294   -0.554940
C       2.299099    0.169017   -0.057024
C       2.162654   -0.170130    1.463259
C       0.773914   -0.841711    1.428438
O       0.207383   -1.265422    2.631800
C       0.921949   -1.778722    0.173839
C      -0.211571   -2.752996   -0.116385
H       0.715203    2.108820    1.021062
H      -0.764115    2.105829    0.059031
H      -0.826461    1.697917    1.777108
H      -1.041992   -0.326163    0.354974
H       0.729790   -0.309253   -1.619238
H       3.149294   -0.335271   -0.525117
H       2.407195    1.240977   -0.241512
H       2.936549   -0.862024    1.814320
H       2.182114    0.711198    2.110078
H       0.886688   -1.710537    3.149555
H       1.875277   -2.321374    0.131503
H      -1.194237   -2.277913   -0.167951
H      -0.043095   -3.265732   -1.069557
H      -0.263296   -3.516369    0.667636
