18

C      -0.375361    1.496521   -0.083296
C       0.148093    0.075736   -0.067133
O       1.458278   -0.047199   -0.673783
C       1.935360   -0.871755    0.404928
C       0.665123   -0.596515    1.237751
C       0.865332    0.317869    2.449899
O      -0.353035    0.769154    3.011287
C       1.699098   -0.366188    3.462678
N       2.322719   -0.933565    4.253106
H       0.322972    2.192026    0.389515
H      -0.515694    1.817273   -1.120068
H      -1.334891    1.560655    0.436722
H      -0.566965   -0.584250   -0.580054
H       2.061680   -1.919485    0.105642
H       2.882629   -0.506313    0.819358
H       0.108043   -1.483956    1.550487
H       1.397628    1.224145    2.142261
H      -0.827719    0.005150    3.359358
