21

O      -0.239755    1.488429    0.268251
C       0.004448    0.089996    0.091417
C      -1.365956   -0.553433   -0.090475
O      -2.187796   -0.216860    1.026242
C      -2.076667   -0.196966   -1.410776
C      -3.217333   -1.233877   -1.507581
C      -2.738639   -2.458960   -0.672990
C      -1.341674   -2.089623   -0.133796
O      -0.295359   -2.458938   -1.031299
H       0.569788    1.903042    0.577725
H       0.641723   -0.100870   -0.778898
H       0.488938   -0.336532    0.981345
H      -2.034376    0.724958    1.175377
H      -2.425644    0.838079   -1.417412
H      -1.371781   -0.323034   -2.238338
H      -4.136527   -0.829007   -1.078150
H      -3.437035   -1.498103   -2.545079
H      -3.418089   -2.650878    0.161129
H      -2.685131   -3.379252   -1.264754
H      -1.156876   -2.498702    0.868339
H      -0.351663   -3.408319   -1.173915
