13

O      -0.057630   -0.007322    0.003510
N      -0.023358    1.216266    0.006742
O       0.995865    1.892956    0.001737
C      -1.309784    1.928699    0.017509
C      -1.327240    3.320908    0.021356
N      -2.465341    4.014237    0.031039
C      -3.609397    3.322487    0.037072
C      -3.679105    1.929661    0.033829
C      -2.494830    1.205757    0.023730
H      -0.394350    3.872902    0.016409
H      -4.521424    3.914071    0.044938
H      -4.639489    1.427707    0.039108
H      -2.466129    0.124117    0.020628
