17

C       0.111402    1.525504    0.047875
C       0.050173    0.019249    0.025115
C       0.074198   -0.685369   -1.191013
N       0.164275   -0.003705   -2.410997
C       0.075981   -2.085156   -1.156536
N       0.051489   -2.795889   -0.032699
C       0.003845   -2.139387    1.122313
C      -0.006177   -0.744083    1.195771
O      -0.058271   -0.195049    2.442484
H       0.724455    1.893155   -0.780476
H      -0.878250    1.993770   -0.039514
H       0.572993    1.907096    0.965607
H      -0.397561    0.833679   -2.473599
H       0.000664   -0.597271   -3.212743
H       0.101201   -2.643947   -2.091030
H      -0.031006   -2.718523    2.040372
H      -0.153055    0.759561    2.372426
