18

C       0.798687    1.538627    0.466282
C      -0.094561    0.359640    0.038755
N       0.023875    0.163044   -1.395908
C       1.150149   -0.525862   -2.019313
C      -0.222217   -1.114977   -2.047015
C       0.191482   -0.830065    0.969063
O       0.893009   -1.776960    0.680525
C      -0.446702   -0.738330    2.275953
C      -0.986298   -0.638281    3.347861
H       1.853938    1.288986    0.319945
H       0.558705    2.407664   -0.150467
H       0.643381    1.792921    1.517852
H      -1.139170    0.642385    0.228517
H       1.551711   -0.034261   -2.902151
H       1.874762   -1.025747   -1.386916
H      -0.379053   -1.999108   -1.436463
H      -0.827551   -1.061714   -2.948508
H      -1.454574   -0.567942    4.299872
