19

C       0.033535    1.501273    0.009400
C      -0.002356   -0.001281    0.006995
C       0.077615   -0.709481   -1.145520
C      -0.054531   -2.129436   -1.324124
C      -0.722364   -3.001065   -0.517854
C      -1.431651   -2.662957    0.685886
C      -1.210632   -1.593062    1.479277
C      -0.018262   -0.680817    1.361303
O       1.217401   -1.340560    1.647816
H       0.894686    1.869875    0.581639
H       0.085956    1.912386   -1.001956
H      -0.860878    1.913353    0.493920
H       0.262141   -0.146310   -2.059100
H       0.331639   -2.522612   -2.261860
H      -0.821763   -4.026140   -0.865979
H      -2.233390   -3.342898    0.967563
H      -1.886877   -1.413070    2.310597
H      -0.088830    0.088821    2.135328
H       1.311397   -2.050504    1.002266
