20

C       0.265605    1.607114    0.055138
C       0.180257    0.100642   -0.045126
C       0.644232   -0.728266   -1.222427
C       1.343233   -0.844356    0.131610
N       2.560392   -0.317220   -0.466200
C       3.581650    0.394866    0.072087
O       4.368165    1.063660   -0.567521
C       1.971234   -0.211105   -1.819047
C       2.628122   -1.122318   -2.844440
H       1.213369    1.994406   -0.326655
H      -0.541570    2.080051   -0.514058
H       0.172877    1.929543    1.097571
H      -0.726936   -0.318485    0.388659
H       0.012770   -1.457437   -1.712585
H       1.374524   -1.661764    0.842509
H       3.641490    0.263484    1.172919
H       1.956559    0.821125   -2.186147
H       2.651752   -2.157389   -2.490228
H       2.073007   -1.089811   -3.788135
H       3.653222   -0.793873   -3.033347
