17

O      -0.063860    1.449044    0.261035
C       0.056640    0.080967    0.026609
C      -0.499002   -0.804045    1.102707
C       0.997991   -0.844824    0.859899
N       1.409981   -1.988315    0.051978
C       0.984847   -1.707850   -1.115862
N       0.501410   -2.380110   -2.239381
C      -0.631892   -1.386890   -2.290529
C       0.235327   -0.431276   -1.385306
H       0.725487    1.884021   -0.080962
H      -0.840642   -0.262644    1.978427
H      -1.075101   -1.689890    0.854112
H       1.677115   -0.467965    1.616220
H       0.313261   -3.374526   -2.174988
H      -0.863224   -1.036741   -3.298034
H      -1.536244   -1.743727   -1.787587
H       0.769277    0.297281   -2.003328
