18

C      -0.045879    1.509628   -0.022573
N       1.240083    0.798482    0.051835
C      -0.018933    0.022958   -0.001563
C      -0.381966   -0.758281    1.217022
C      -0.978636   -1.939408    1.043849
C      -1.218933   -2.358482   -0.393721
C       0.099719   -2.214952   -1.196483
C      -0.379811   -0.746886   -1.265126
O      -1.752900   -1.209113   -1.131388
H      -0.316176    2.058580    0.875230
H      -0.330752    1.994801   -0.953361
H       1.687372    0.789628   -0.863511
H      -0.142719   -0.339743    2.189064
H      -1.267926   -2.585144    1.865434
H      -1.838145   -3.249154   -0.511290
H       1.040745   -2.446601   -0.695656
H       0.039695   -2.694796   -2.174612
H      -0.212624   -0.163753   -2.177047
