15

O      -0.769742    1.331167    0.333531
C       0.341612    0.931761    0.083048
C       1.495406    1.845237   -0.121205
N       2.687082    1.406525   -0.298649
C       3.536863    2.596862   -0.425987
C       2.643272    3.819482    0.003309
N       1.304520    3.212982   -0.132264
C       2.911699    4.295801    1.358784
C       3.126230    4.684613    2.475880
H       0.601556   -0.140482    0.004016
H       4.436377    2.504102    0.186107
H       3.849919    2.702028   -1.471897
H       2.754706    4.650757   -0.699466
H       0.532963    3.583414    0.405063
H       3.318088    5.027976    3.462681
