19

O       0.195719    1.397826   -0.188230
C       0.049832    0.010149   -0.038787
C       0.027732   -0.650929    1.355711
C      -1.469353   -0.179873    1.551245
C      -2.198829   -1.249777    2.355849
C      -3.098416   -2.204533    1.604296
C      -1.622648   -2.500596    1.736947
C      -0.680642   -1.897300    0.701580
C      -1.352051   -0.641277    0.055893
H      -0.358771    1.842116    0.460753
H       0.727512   -0.438027   -0.770390
H       0.813885   -0.668382    2.113816
H      -1.693794    0.864217    1.781280
H      -2.316210   -1.128738    3.426499
H      -3.770307   -2.809182    2.205623
H      -3.508962   -1.919057    0.642005
H      -1.292577   -3.345252    2.330414
H      -0.096792   -2.564790    0.065330
H      -2.139090   -0.631644   -0.699794
