16

N      -0.033733    1.235110   -0.198714
C      -0.288332   -0.126285   -0.301082
O       0.125016   -0.810884   -1.220418
N      -1.025438   -0.646169    0.739348
C      -1.192454   -2.088451    0.844008
C      -2.290163   -2.616547   -0.099534
C      -2.360455   -4.124329   -0.091473
O      -3.345595   -4.769106    0.163368
H       0.306300    1.628421   -1.063258
H      -0.720308    1.808115    0.268744
H      -1.095162   -0.109337    1.587760
H      -0.243625   -2.584231    0.608553
H      -1.447071   -2.318927    1.882327
H      -3.270104   -2.207804    0.159605
H      -2.022092   -2.297920   -1.114780
H      -1.399440   -4.629197   -0.348391
