24

C      -0.018578    1.549395   -0.011153
C      -0.005931    0.010755   -0.002103
C      -1.463721   -0.490471    0.080203
C       0.663600   -0.522243   -1.290446
C       0.989719   -2.014714   -1.188176
C       1.995407   -2.283923   -0.063900
N       1.671552   -1.633479    1.220319
C       2.203202   -0.288355    1.431489
C       0.744310   -0.487824    1.237126
H       0.995313    1.955366   -0.080214
H      -0.593520    1.928655   -0.864067
H      -0.476766    1.946725    0.901426
H      -2.038521   -0.160583   -0.791947
H      -1.523458   -1.581542    0.131276
H      -1.957922   -0.093930    0.973395
H       0.001095   -0.326888   -2.141702
H       1.587412    0.037664   -1.488707
H       0.071447   -2.584934   -1.008013
H       1.402779   -2.386148   -2.132641
H       2.061290   -3.362411    0.121175
H       2.994369   -1.961632   -0.386153
H       2.610245   -0.085036    2.419764
H       2.766461    0.166328    0.617086
H       0.126613   -0.474378    2.135795
