18

C      -0.003066    1.534354   -0.067018
O       1.279618    2.154692   -0.054872
C       1.813093    2.504899    1.219119
C       2.644821    1.432244    1.893627
C       2.161742    0.319357    2.445133
C       0.696922   -0.064771    2.443056
C       0.290846   -0.680389    1.120419
C       0.004730    0.021424    0.024231
H      -0.628417    1.960502    0.733494
H      -0.455197    1.833924   -1.017775
H       2.441176    3.381910    1.033465
H       0.998275    2.829637    1.885522
H       3.719803    1.595009    1.903264
H       2.853094   -0.398806    2.880457
H       0.491481   -0.762797    3.259995
H       0.088391    0.829747    2.627398
H       0.292877   -1.766875    1.067720
H      -0.228504   -0.514898   -0.892359
