21

C      -0.105827    1.529576    0.011896
C      -0.008611    0.008672   -0.003130
C       1.081272   -0.577880   -0.967855
C       1.829411   -1.192907    0.249909
C       0.755264   -0.611746    1.214560
C       0.420007   -2.041089    1.695712
C       0.016528   -2.950721    0.550327
C       1.464681   -2.615861    0.743387
O       2.416489   -3.585570    1.013657
H       0.875483    1.987652    0.183969
H      -0.486834    1.912834   -0.941400
H      -0.777226    1.875807    0.805854
H      -1.006148   -0.415693   -0.153645
H       0.730374   -1.285919   -1.724323
H       1.655535    0.203080   -1.474833
H       2.886175   -0.960168    0.381522
H       1.034744    0.077738    2.012837
H       0.188773   -2.314956    2.718314
H      -0.235035   -3.956246    0.874596
H      -0.568891   -2.599770   -0.294365
H       2.482491   -4.167098    0.248129
