20

C       0.369658    1.396216   -0.503362
C       1.388473    0.360204   -0.111449
C       2.392698    0.555096    1.009693
C       1.897478    1.227611    2.293157
C       0.963284    0.364355    3.153793
C      -0.416234    0.093545    2.610725
C      -0.824011   -0.036290    1.345654
C      -0.080587    0.051395    0.065745
H       0.236284    2.255605    0.144014
H       0.204326    1.599911   -1.556107
H       1.830644   -0.161872   -0.957759
H       2.816301   -0.424536    1.273043
H       3.228016    1.143753    0.606707
H       2.776368    1.481046    2.898295
H       1.405853    2.180408    2.062263
H       1.464984   -0.593745    3.364764
H       0.850545    0.845952    4.133156
H      -1.181239   -0.025802    3.376277
H      -1.884330   -0.242913    1.201108
H      -0.486105   -0.622721   -0.685420
