23

C       0.067816    1.521167    0.099583
C      -0.001641    0.022537    0.001971
C       0.874908   -0.698166   -1.052611
C       0.636335   -2.162413   -0.568228
C      -0.303039   -1.820661    0.604367
O       0.402334   -0.698657    1.217726
C      -1.337206   -0.808229    0.027182
C      -2.315963   -0.317887    1.097280
C      -2.087983   -1.109627   -1.267731
H       1.094763    1.839747    0.307228
H      -0.242300    1.979462   -0.845600
H      -0.575852    1.902147    0.896597
H       0.559940   -0.512789   -2.082684
H       1.917664   -0.388272   -0.951888
H       0.181720   -2.812700   -1.319893
H       1.549966   -2.638679   -0.206914
H      -0.581322   -2.606689    1.308413
H      -1.804044   -0.107104    2.037354
H      -2.831563    0.592225    0.769819
H      -3.085406   -1.075202    1.285880
H      -2.862119   -1.865441   -1.092275
H      -2.596032   -0.209035   -1.631558
H      -1.447901   -1.475080   -2.072666
