21

C       0.067884    1.582443   -0.098718
C      -0.022290    0.104431    0.302108
C      -1.418523   -0.505284    0.124699
C      -2.468770    0.132426    1.033213
C      -1.896022   -0.675931   -1.343023
O      -2.100138   -2.092167   -1.172043
C      -1.518941   -2.078909    0.130211
C      -0.214050   -2.836507    0.234118
O       0.391417   -3.305405   -0.692884
H       1.101066    1.934616   -0.028983
H      -0.262700    1.736208   -1.131850
H      -0.541389    2.222232    0.546038
H       0.694564   -0.466149   -0.299514
H       0.293169   -0.007631    1.347859
H      -2.585077    1.199626    0.820725
H      -3.445003   -0.341786    0.892243
H      -2.190953    0.028658    2.088317
H      -2.823604   -0.157559   -1.612351
H      -1.131642   -0.468799   -2.102585
H      -2.200468   -2.476719    0.898696
H       0.161159   -2.922325    1.282647
