16

C      -0.034533    1.592419   -0.066466
C       0.010940    0.073598   -0.032106
N       1.144875   -0.548816   -0.742796
C       1.764230   -1.066143    0.361291
O       2.799753   -1.645369    0.550208
C       0.584733   -0.589134    1.259942
O       0.900829    0.333118    2.287359
C       1.688009   -0.122885    3.297092
O       1.991803    0.574630    4.215156
H       0.911656    2.022569    0.268272
H      -0.242122    1.942162   -1.082738
H      -0.829219    1.961212    0.588318
H      -0.952270   -0.352030   -0.333723
H       1.425240   -0.523622   -1.712681
H      -0.026873   -1.410643    1.645609
H       2.000736   -1.171973    3.162248
