17

C      -0.606543    1.168609    0.237238
C       0.257133   -0.060133    0.047485
C       0.915597   -0.292715   -1.329939
C       2.255934   -0.245233   -0.544420
O       1.557454    0.076193    0.684025
C       3.011188   -1.484152   -0.474428
C       3.646980   -2.513559   -0.425949
C       4.354386   -3.673929   -0.373570
C       4.983177   -4.703970   -0.328894
H      -0.112491    2.058487   -0.165209
H      -1.568585    1.041391   -0.271465
H      -0.802701    1.335707    1.300923
H      -0.256583   -0.950754    0.433255
H       0.693892   -1.238335   -1.823107
H       0.793035    0.531259   -2.035148
H       2.926410    0.574129   -0.833393
H       5.535279   -5.609950   -0.287947
