20

C       0.141329    1.604021    0.078275
C       0.064267    0.076420    0.052363
C       0.577794   -0.515633   -1.275310
C       0.525609   -2.005014   -1.313997
C      -0.198545   -2.903354   -2.033508
C       0.236920   -4.172917   -1.551436
C      -0.208751   -5.535729   -1.975138
N       1.148935   -4.039448   -0.617058
O       1.335350   -2.664156   -0.463192
H       1.172703    1.951552   -0.047710
H      -0.457564    2.046909   -0.725468
H      -0.230042    2.001253    1.027601
H       0.650358   -0.344702    0.876186
H      -0.970437   -0.250232    0.210312
H      -0.013554   -0.128681   -2.111763
H       1.612599   -0.188440   -1.439006
H      -0.931809   -2.697699   -2.796066
H      -0.018763   -5.696148   -3.041512
H       0.325919   -6.298764   -1.406378
H      -1.283601   -5.665380   -1.811007
