16

C      -0.080750    1.556796   -0.031526
N       0.174016    0.121771    0.030232
C       1.295631   -0.664876   -0.384202
C       2.715819   -0.223814    0.121782
C       2.738597    1.023614    0.962027
C       2.205729   -0.252638    1.553516
C       0.791177   -0.693461    1.031773
H       0.599268    2.063340   -0.724281
H      -1.103659    1.719255   -0.392592
H       0.001960    2.029490    0.952668
H       1.171806   -1.391610   -1.181194
H       3.620144   -0.674588   -0.266229
H       3.730749    1.285404    1.320767
H       2.119293    1.883500    0.758683
H       2.666911   -0.728439    2.409365
H       0.200787   -1.446638    1.544448
