16

C      -0.013702    1.491997    0.047184
C      -0.009911    0.002938   -0.025921
N      -0.012844   -0.717051   -1.115530
C       0.015210   -2.046535   -0.701179
C       0.025775   -3.159788   -1.568955
C       0.040036   -4.143672   -2.266639
C       0.025111   -2.105513    0.679079
N      -0.034168   -3.175894    1.569870
N       0.010896   -0.799515    1.099188
H       0.879926    1.879541    0.550818
H      -0.035492    1.886736   -0.969189
H      -0.888684    1.874756    0.585986
H       0.046849   -4.995287   -2.899934
H      -0.080767   -4.048691    1.055895
H       0.756050   -3.215021    2.206115
H      -0.061582   -0.498567    2.057060
