21

C      -0.167466    1.578823    0.052541
C      -0.071905    0.052412    0.011915
C       0.783192   -0.524768    1.140881
C       0.832425   -2.083806    1.155568
N       2.218494   -2.324017    1.573876
C       2.886734   -1.142534    1.281456
O       4.219010   -1.224372    1.304893
C       4.906356    0.003442    1.051184
N       2.191817   -0.096122    1.051866
H       0.829679    2.023842    0.004981
H      -0.759082    1.961449   -0.784968
H      -0.641992    1.920241    0.979529
H      -1.076070   -0.389265    0.071150
H       0.358039   -0.269530   -0.945256
H       0.376330   -0.167372    2.099638
H       0.118717   -2.528404    1.853966
H       0.634423   -2.490371    0.152343
H       2.672012   -3.178211    1.281685
H       4.642189    0.396234    0.065596
H       4.647848    0.751051    1.805651
H       5.969179   -0.236668    1.096812
