25

C      -0.173014    1.560574    0.329384
C      -0.080601    0.051669    0.080746
C       0.734410   -0.669719    1.161597
C       0.880373   -2.208989    1.010764
C       1.702434   -2.559935   -0.240523
C       1.522750   -2.806615    2.303821
C       0.352258   -3.328415    3.174467
C      -0.766837   -3.477438    2.171611
C      -0.481295   -2.887243    1.013369
H       0.821175    2.021365    0.342895
H      -0.760228    2.059245   -0.448272
H      -0.647412    1.774647    1.293722
H      -1.092095   -0.370748    0.040550
H       0.364467   -0.122452   -0.906360
H       1.742663   -0.232673    1.199547
H       0.275509   -0.463612    2.137860
H       2.702203   -2.112788   -0.190643
H       1.822123   -3.644098   -0.333021
H       1.224749   -2.202286   -1.158177
H       2.168533   -3.647106    2.028440
H       2.149731   -2.077725    2.825771
H       0.597577   -4.268202    3.682367
H       0.074308   -2.619887    3.967395
H      -1.697190   -3.985871    2.402372
H      -1.142752   -2.851133    0.153873
