14

N      -0.051285    1.351594    0.146485
C       0.015368   -0.010289    0.044038
N      -1.155603   -0.658279    0.005336
C      -1.091167   -1.993204   -0.049985
N      -2.276038   -2.662618   -0.132644
H      -3.107133   -2.151242    0.110301
H      -2.253218   -3.650912    0.052610
N       0.021456   -2.749934   -0.065365
C       1.142618   -2.063604   -0.029716
F       2.258944   -2.783129   -0.044566
C       1.246407   -0.687288    0.022884
H       0.757780    1.892944   -0.107069
H      -0.948023    1.759654   -0.064321
H       2.202845   -0.185467    0.059672
