21

O      -0.011963    1.299015    0.405917
C      -0.180086   -0.108894    0.440695
C      -1.371835   -0.584384   -0.396287
C      -1.491276   -2.091572   -0.414087
N      -2.013546   -2.751605    0.801357
C      -2.784280   -2.831971   -0.448644
C      -4.125850   -2.155269   -0.439925
C      -5.166435   -2.607518    0.517681
N      -4.506793   -1.302318    0.693407
H      -0.796726    1.696543    0.796806
H       0.752096   -0.525438    0.041289
H      -0.286379   -0.479911    1.471413
H      -2.293829   -0.141391   -0.004740
H      -1.251926   -0.217711   -1.423072
H      -0.657764   -2.595741   -0.903954
H      -1.523639   -3.620629    0.989069
H      -2.769309   -3.780305   -0.985518
H      -4.446571   -1.777119   -1.409054
H      -6.217054   -2.564573    0.244905
H      -4.901968   -3.408937    1.203138
H      -3.781479   -1.416457    1.402077
