19

O       0.119842    0.898904   -0.725049
C       0.139091   -0.242314    0.091459
C      -0.017381    0.003627    1.624677
N      -1.142919   -0.958493    1.599194
C      -1.190652   -0.979844    0.204038
N      -1.997854   -1.330527   -0.701291
C      -3.268780   -1.876286   -0.357754
C      -4.431233   -1.548317   -1.267964
C      -3.836984   -2.930642   -1.280747
H      -0.558850    0.739459   -1.392649
H       0.990308   -0.891829   -0.150322
H       0.810894   -0.296996    2.271258
H      -0.309174    1.038178    1.829578
H      -1.944294   -0.924364    2.213323
H      -3.503729   -1.994417    0.700635
H      -5.406966   -1.402813   -0.817736
H      -4.213093   -0.899802   -2.108231
H      -3.220414   -3.205174   -2.128309
H      -4.399476   -3.745455   -0.838779
