22

C      -0.159879    1.601893   -0.143239
C      -0.132756    0.070968   -0.186640
C       0.862816   -0.520195   -1.203248
C       2.324170   -0.174121   -0.885547
C       0.676655   -2.037722   -1.329012
C      -0.420079   -2.578628   -2.234650
C       1.014934   -2.719719   -2.646777
C       0.949392   -2.792899   -0.129736
N       1.173314   -3.384595    0.839592
H       0.789884    2.020450    0.202277
H      -0.370343    2.024641   -1.132517
H      -0.939060    1.954241    0.539331
H       0.100430   -0.323682    0.810382
H      -1.136227   -0.297877   -0.432171
H       0.619162   -0.108436   -2.192894
H       2.486789    0.906604   -0.890494
H       2.609402   -0.554782    0.101072
H       3.000585   -0.616624   -1.623422
H      -0.952619   -3.465841   -1.913982
H      -1.032620   -1.838651   -2.738095
H       1.392909   -2.077162   -3.434560
H       1.466570   -3.703616   -2.607735
