19

C       0.004029    1.553682    0.006428
C       0.024567    0.046422   -0.033116
C       0.406944   -0.776060   -1.307510
C      -0.339018   -1.960038   -0.622945
C       0.427167   -2.188022    0.687644
C       1.834842   -1.678755    0.853111
C       0.692856   -0.732208    1.115751
C      -1.281328   -0.818785   -0.120611
O      -2.450425   -0.638624    0.021697
H       1.014696    1.968929   -0.068605
H      -0.594896    1.961397   -0.814087
H      -0.433815    1.910533    0.944776
H      -0.122232   -0.416421   -2.192735
H       1.463757   -0.901304   -1.539408
H      -0.699983   -2.822154   -1.178816
H       0.038189   -2.921149    1.383729
H       2.336003   -2.034395    1.747900
H       2.507619   -1.555607    0.013053
H       0.500291   -0.393723    2.127334
