18

C       0.515966    1.918802    0.407126
N       0.006983    0.561154    0.241678
C       0.942566   -0.420070   -0.299945
C       0.498756   -0.520304    1.117199
C       1.430216   -0.293313    2.286065
C       0.773490    0.189354    3.586433
N      -0.520302    0.611325    3.480826
O       1.381909    0.198917    4.637777
H       1.596390    1.984489    0.606603
H       0.314282    2.473608   -0.514394
H      -0.011573    2.417260    1.226311
H       0.551438   -1.098653   -1.053478
H       1.966600   -0.090669   -0.474753
H      -0.281266   -1.252414    1.326672
H       1.945752   -1.226420    2.536350
H       2.219878    0.424252    2.044245
H      -1.022227    0.618242    2.609885
H      -0.975852    0.944417    4.314432
