17

O       0.224716    1.403049   -0.024252
C       0.010387    0.017991    0.016645
C      -1.351556   -0.385613    0.606550
O      -0.723407   -1.307917    1.523624
C       0.598542   -0.848400    1.174811
C       1.522248   -1.925645    0.578521
C       1.313047   -1.841596   -0.924984
O      -0.042607   -2.052763   -1.329742
C       0.429252   -0.706411   -1.257781
H       1.119084    1.571495   -0.341132
H      -1.842078    0.445989    1.125935
H      -2.053249   -0.888409   -0.064549
H       1.058333   -0.291928    2.000235
H       2.571110   -1.719054    0.821132
H       1.272073   -2.914867    0.973290
H       2.064531   -2.224757   -1.612132
H       0.458707   -0.157857   -2.197721
