16

O      -0.003665    1.390707   -0.060494
C      -0.058917    0.001123   -0.041973
C      -0.480472   -0.755369    1.210562
N      -1.138670    0.024327    2.214934
C      -2.374002    0.522361    1.847631
O      -3.091360    1.201646    2.541767
C      -2.619400    0.069540    0.397372
C      -1.387617   -0.730590   -0.000023
O      -1.542632   -1.911237   -0.723307
H      -0.018286    1.703583    0.852286
H       0.710810   -0.477473   -0.643633
H       0.037527   -1.654255    1.522716
H      -0.760056    0.203684    3.131208
H      -3.511349   -0.561866    0.358989
H      -2.791928    0.952816   -0.223504
H      -1.630492   -1.681058   -1.655289
