12

C       0.055033    1.353239    0.009414
N       1.317694    1.811056   -0.000563
N       2.047952    0.696273   -0.013874
N       3.382548    0.710563   -0.026911
N       3.959885   -0.438917   -0.038983
C       3.201547   -1.584728   -0.037909
N       1.896152   -1.667077   -0.025540
C       1.269033   -0.479203   -0.012767
C      -0.044364   -0.046865    0.002528
H      -0.752009    2.071524    0.021358
H       3.780430   -2.501644   -0.048695
H      -0.928114   -0.661500    0.007769
