16

O       0.114980    0.048380   -0.177439
C       0.039448    1.213562    0.109284
O      -1.146584    1.864303    0.179871
C      -1.217525    3.221779    0.694208
C      -0.077550    4.086419    0.215902
C       1.063657    3.422036    0.101356
C       2.512259    3.468410   -0.344090
C       2.495808    1.907080   -0.194247
N       1.127680    2.035012    0.350123
H      -2.186993    3.592027    0.354758
H      -1.245050    3.157670    1.791821
H      -0.215259    5.133878   -0.009557
H       2.680556    3.840532   -1.356063
H       3.186026    3.984436    0.343310
H       2.523802    1.351406   -1.134601
H       3.210225    1.477487    0.510357
