13

C       0.030724    1.541118    0.075985
C      -0.034643    0.011215   -0.067285
C       0.665590   -0.478864   -1.291114
N       0.051064   -0.970498   -2.363678
N       1.084589   -1.232629   -3.154142
N       2.267504   -0.937735   -2.637919
N       2.018253   -0.454656   -1.449862
H       1.069110    1.881655    0.108804
H      -0.462603    2.034792   -0.766697
H      -0.465909    1.860326    0.996623
H       0.428092   -0.457314    0.807889
H      -1.073935   -0.325429   -0.109497
H       0.983009   -1.633767   -4.074313
