14

N      -0.050307    1.461964   -0.166030
C      -0.061212    0.033640   -0.024296
C      -0.467262   -0.736165    1.185858
O      -1.500550    0.012129    1.883536
C      -2.376649   -0.154325    0.805973
O      -3.534708    0.105196    0.774564
C      -1.340828   -0.813996   -0.077975
N      -1.513541   -1.820417   -1.053250
H      -0.657471    1.882471    0.532760
H       0.885260    1.812165    0.019206
H       0.715517   -0.456088   -0.607506
H       0.046866   -1.506655    1.743663
H      -2.284978   -2.438085   -0.823453
H      -1.694521   -1.420658   -1.968072
