25

C       0.060516    1.629673    0.049540
C       0.028034    0.099062    0.074677
C      -1.391900   -0.473379    0.017721
C      -1.431230   -2.003732    0.044247
C      -2.852349   -2.571854   -0.073718
O      -3.504272   -2.125885   -1.256577
C      -2.868060   -4.110538   -0.029570
C      -4.281214   -4.675938    0.079089
O      -2.235346   -4.520407   -1.248570
H       1.086359    2.010385    0.082986
H      -0.410629    2.019432   -0.859698
H      -0.478941    2.051359    0.905176
H       0.609593   -0.293469   -0.770287
H       0.532368   -0.263351    0.980780
H      -1.976237   -0.079260    0.861902
H      -1.898508   -0.124453   -0.889332
H      -0.824457   -2.411396   -0.774183
H      -0.981443   -2.372979    0.976608
H      -3.458802   -2.197381    0.761136
H      -3.131650   -2.665732   -1.966473
H      -2.268281   -4.446847    0.830864
H      -4.909269   -4.274055   -0.720014
H      -4.272668   -5.770430    0.010761
H      -4.731142   -4.410843    1.041238
H      -2.430397   -5.450517   -1.394459
