19

C       0.378554    1.301687    0.085043
O       0.223815   -0.111555   -0.064550
C       0.561646   -0.598431   -1.259846
N       0.969006    0.086591   -2.259548
C       1.301446   -0.870894   -3.321646
C       1.121986   -2.272045   -2.684114
C       2.298582   -2.945393   -1.926545
C       1.446515   -2.809956   -0.635385
N       0.435665   -1.989837   -1.382019
H       1.416259    1.597930   -0.092139
H      -0.261047    1.834970   -0.623204
H       0.084274    1.525468    1.111085
H       0.629838   -0.732911   -4.177845
H       2.323057   -0.704207   -3.687501
H       0.554424   -2.960495   -3.315017
H       2.559913   -3.960071   -2.232955
H       3.204182   -2.332999   -1.914964
H       1.008251   -3.747193   -0.283364
H       1.896226   -2.287884    0.212707
