15

C       0.060378    1.532577    0.018983
C      -0.069767    0.055764    0.137191
C      -1.179200   -0.684485   -0.087191
O      -2.353486   -0.110620   -0.465926
N      -1.186606   -2.050164    0.052925
C      -0.093922   -2.631617    0.410389
C       1.159421   -1.926168    0.677433
N       2.282639   -2.406746    1.032834
O       1.086310   -0.564071    0.515623
H       0.827018    1.794963   -0.718898
H      -0.891571    1.968411   -0.284766
H       0.367069    1.971092    0.975390
H      -2.984750   -0.834419   -0.561775
H      -0.091672   -3.713927    0.523476
H       2.214469   -3.419289    1.119794
