18

O      -0.279347    0.058296    0.034710
C      -0.051627    1.246401    0.031013
N       1.198359    1.808095    0.003927
C       2.398141    1.107319   -0.023443
C       2.694571   -0.200172   -0.031435
C       4.233505   -0.180161   -0.065628
C       4.538933    0.932834    0.996027
C       3.766773    1.803963   -0.053098
C       4.491510    0.935152   -1.137391
H      -0.842009    2.021964    0.049449
H       1.249042    2.815249    0.004066
H       2.043213   -1.056273   -0.017914
H       4.760565   -1.133110   -0.078377
H       4.090555    0.821444    1.985736
H       5.599906    1.192299    1.070953
H       3.793717    2.895741   -0.052512
H       5.548117    1.194836   -1.258831
H       3.999588    0.825890   -2.106437
