17

C       0.215626    1.399084   -0.061242
N      -0.043715   -0.024759   -0.051983
C       0.645420   -0.751222   -0.821914
N       0.505842   -2.140719   -0.895034
C       1.265384   -2.886309   -1.905071
C       2.710270   -2.727571   -1.772885
C       3.898972   -2.583857   -1.676894
C      -0.334181   -2.842837   -0.044081
O      -0.494974   -4.040955   -0.097559
H       0.998056    1.702143   -0.775381
H      -0.706741    1.938022   -0.305558
H       0.517505    1.723922    0.940995
H       1.420872   -0.372221   -1.499947
H       0.975571   -3.932524   -1.773759
H       0.945907   -2.579674   -2.908894
H       4.951398   -2.471725   -1.586488
H      -0.828641   -2.177185    0.675559
