23

C       0.009081    1.515039   -0.397807
C       0.003975    0.077838    0.126427
O       0.633129   -0.003456    1.408757
C      -1.385575   -0.524555    0.150648
C      -1.918280   -1.284759   -1.047212
C      -1.560399   -2.011063    0.218517
C      -0.471614   -3.086700    0.369191
C      -1.546663   -4.024409    0.994901
C      -2.525470   -2.816751    1.100769
H       1.024792    1.919778   -0.392053
H      -0.385383    1.562777   -1.417668
H      -0.618702    2.157537    0.232497
H       0.639995   -0.539405   -0.519475
H       0.088784    0.492986    2.029862
H      -2.116918    0.070335    0.699760
H      -2.967152   -1.171249   -1.303876
H      -1.260709   -1.401482   -1.904911
H       0.005996   -3.438922   -0.549444
H       0.306491   -2.789227    1.077416
H      -1.897696   -4.785552    0.293839
H      -1.278034   -4.516478    1.932004
H      -2.602194   -2.420252    2.118552
H      -3.536604   -2.969638    0.712451
