19

O      -0.391420    1.353574    0.006365
C      -0.132918   -0.013967    0.105130
C      -0.060102   -0.845042   -1.154016
C      -1.234558   -0.988430   -0.201243
C      -1.180294   -2.128018    0.821410
C       0.254440   -2.010096    1.433341
C       0.620200   -0.515529    1.329373
C      -2.223725   -1.972059    1.831727
C      -3.077604   -1.836381    2.667367
H       0.418354    1.789398   -0.280571
H      -0.275141   -0.317273   -2.076657
H       0.668847   -1.643995   -1.249619
H      -2.203600   -0.634182   -0.530189
H      -1.305152   -3.106373    0.340899
H       0.287516   -2.385040    2.457539
H       0.946483   -2.618228    0.843677
H       1.703389   -0.357925    1.272505
H       0.247807    0.039737    2.197184
H      -3.835044   -1.719610    3.402120
