18

C       0.019065   -1.237129    0.114538
C      -0.018340   -0.035471    0.110261
C      -0.016882    1.421512    0.098768
C       1.399775    2.020250   -0.125254
C       1.413249    3.514373   -0.128572
C       1.433495    4.419586   -1.168496
C       1.392201    5.729033   -0.613110
C       1.346988    5.591431    0.753507
N       1.355769    4.247735    1.036286
H       0.034941   -2.298652    0.118620
H      -0.684714    1.792337   -0.687687
H      -0.426394    1.798446    1.044390
H       2.071475    1.623995    0.646250
H       1.783858    1.658778   -1.082983
H       1.476580    4.162586   -2.216452
H       1.401129    6.662492   -1.154454
H       1.316193    6.325048    1.542948
H       1.354985    3.854245    1.961434
