21

C       0.261527    1.586834    0.493181
C      -0.811577    0.736608    1.182851
C      -0.197749   -0.260443    2.149672
O      -1.152807   -1.054552    2.919592
C      -0.372560   -2.233369    2.687982
C      -0.409230   -2.634778    1.246459
C      -1.644465   -2.531636    0.377874
O      -2.375314   -3.752434    0.386383
C       0.534730   -1.527313    1.700549
H       0.946042    0.963199   -0.091784
H      -0.191856    2.311656   -0.188537
H       0.859169    2.144185    1.222824
H      -1.493707    1.381156    1.751504
H      -1.416817    0.220756    0.432918
H       0.439709    0.281702    2.864011
H      -0.168617   -2.877538    3.536025
H       0.148211   -3.551854    1.059669
H      -2.271155   -1.695464    0.708163
H      -1.368960   -2.360153   -0.668004
H      -2.688684   -3.889474    1.286478
H       1.605259   -1.607433    1.566859
