19

C      -0.013641    1.565368   -0.005639
C       1.489436    1.952033   -0.053488
C       2.175539    0.586884    0.154224
O       1.301346   -0.334392   -0.484430
C       0.003644    0.009941    0.010687
C      -0.166235   -0.586405    1.418422
C       1.056119   -0.294128    2.278585
O       2.221783   -1.089457    2.019394
C       2.255802    0.280190    1.645027
H      -0.519376    1.973100    0.873408
H      -0.543256    1.935358   -0.886002
H       1.761607    2.364831   -1.027518
H       1.765435    2.685034    0.709790
H       3.155668    0.497858   -0.321871
H      -0.727234   -0.420166   -0.678208
H      -1.063539   -0.175413    1.895218
H      -0.299748   -1.671516    1.352035
H       0.879788   -0.114185    3.338614
H       2.933197    0.908794    2.225093
