17

C      -0.071091    1.506918    0.061208
C       0.130775    0.017773    0.021139
O      -0.731860   -0.771970    0.852137
C       0.696075   -0.811315    1.105390
C       1.376299   -1.973297    0.467031
C       1.236610   -1.918069   -0.860216
C       0.466121   -0.686079   -1.309331
C      -0.795582   -1.072846   -2.075228
O      -0.938503   -0.923571   -3.260858
H       0.810615    2.029327   -0.323705
H      -0.929436    1.800166   -0.553200
H      -0.258033    1.837435    1.085709
H       0.997000   -0.413520    2.069780
H       1.892712   -2.747068    1.020958
H       1.585163   -2.659472   -1.569775
H       1.066079   -0.051904   -1.971373
H      -1.583250   -1.522457   -1.436603
