19

C      -0.132244    1.687114    0.106294
C      -0.162583    0.178248    0.232869
C      -1.324192   -0.495500   -0.491678
C      -1.199976   -0.357468   -1.998042
O      -2.066722    0.062599   -2.720340
O       1.094748   -0.500844    0.049556
C       0.474587   -0.547693    1.348518
C       1.270122    0.069738    2.472320
O       2.375424   -0.751312    2.810722
H       0.776230    2.110673    0.534679
H      -0.176531    1.981189   -0.947741
H      -0.998963    2.131045    0.607240
H      -1.311853   -1.567967   -0.260500
H      -2.285966   -0.079817   -0.177168
H      -0.218229   -0.688438   -2.402575
H       0.068972   -1.530254    1.599165
H       1.591633    1.086558    2.212340
H       0.648603    0.133177    3.372320
H       2.907070   -0.846221    2.012150
