17

C      -0.707816    1.241640    0.165281
C      -0.073944   -0.093065   -0.031638
C       1.018515   -0.506053   -0.750818
N       1.217126   -1.863470   -0.623625
C       0.254843   -2.278769    0.166548
C       0.045513   -3.704391    0.607033
C      -1.105509   -3.877256    1.486797
C      -2.059057   -3.992063    2.209913
N      -0.552847   -1.250405    0.552819
H      -0.712758    1.547626    1.218777
H      -0.153268    1.998118   -0.394978
H      -1.746440    1.264074   -0.187219
H       1.674046    0.103953   -1.354865
H      -0.067831   -4.339009   -0.280952
H       0.953690   -4.059079    1.110533
H      -2.895818   -4.123688    2.850659
H      -1.352598   -1.343176    1.158711
