14

O      -0.354486    0.088772    0.006806
C      -0.094213    1.270390    0.009466
N       1.163734    1.809636   -0.000917
C       2.362900    1.088563   -0.016767
C       2.622220   -0.263170   -0.031533
C       4.040723   -0.405685   -0.043242
C       4.596338    0.847656   -0.035668
N       3.561377    1.761168   -0.019184
H      -0.864131    2.066311    0.020815
H       1.221139    2.816214    0.001258
H       1.874532   -1.035640   -0.033114
H       4.585746   -1.336775   -0.056083
H       5.621200    1.179575   -0.040308
H       3.674754    2.759511   -0.009504
