16

C      -0.001785    1.434713    0.054407
N      -0.048408   -0.010055    0.015153
C      -0.048777   -0.808338   -1.116632
C       0.001173   -2.150827   -0.779696
C       0.041804   -2.163832    0.638388
C       0.016974   -0.854712    1.093909
N       0.046462   -0.747155    2.453551
C       0.087763   -2.008062    2.844112
N       0.085842   -2.910743    1.800865
H       1.027877    1.810514    0.089151
H      -0.495298    1.841361   -0.831487
H      -0.527804    1.787908    0.944242
H      -0.088158   -0.350851   -2.093063
H      -0.006137   -2.974148   -1.475681
H       0.121837   -2.338147    3.871538
H       0.114541   -3.910956    1.891771
