22

C      -0.164081    1.583381    0.012607
C      -0.061200    0.055876    0.003056
C      -1.430939   -0.631889    0.012747
C      -1.311253   -2.147038    0.003053
O      -2.641973   -2.686345    0.013255
C      -2.739515   -4.018023    0.006751
N      -1.732480   -4.790744   -0.007514
O      -4.060840   -4.306877    0.018325
C      -4.414280   -5.680076    0.014318
H       0.826028    2.049394    0.005445
H      -0.711277    1.948105   -0.863604
H      -0.693846    1.938229    0.903463
H       0.503166   -0.268025   -0.881234
H       0.520490   -0.277822    0.872351
H      -1.999024   -0.323774    0.899137
H      -2.016421   -0.313890   -0.858705
H      -0.783823   -2.509658   -0.886022
H      -0.766287   -2.519548    0.877340
H      -1.991868   -5.771343   -0.010373
H      -4.028785   -6.195893    0.902115
H      -5.504355   -5.709614    0.025089
H      -4.046730   -6.186052   -0.886657
