17

O      -0.072681    1.350235    0.022844
C       0.079251   -0.027412   -0.011238
C       1.089996   -0.809205    0.868505
C       0.823506   -1.949522   -0.149046
O       1.636298   -3.063357   -0.293600
C      -0.690726   -2.247751   -0.129793
C      -0.985873   -1.451665   -1.381648
C      -1.240903   -0.826865   -0.027916
C       0.465857   -0.896731   -1.281418
H       0.796071    1.755818   -0.065749
H       2.106672   -0.407554    0.757132
H       0.862157   -0.973230    1.925787
H       2.547198   -2.766590   -0.389858
H      -1.191655   -3.116035    0.277822
H      -1.654689   -1.651437   -2.207279
H      -2.174334   -0.578168    0.459788
H       1.137346   -0.579716   -2.076568
