19

O      -1.158934    0.399250    0.464288
C      -0.470238    1.348410    0.201396
N      -0.748279    2.668783   -0.054668
C       0.644770    3.094621   -0.214142
C       1.051939    1.608778    0.034974
C       1.906284    1.265155    1.246138
N       3.319663    1.522275    0.990929
C       3.843421    2.818381    1.413666
C       4.186435    1.578044    2.161648
H      -1.621188    3.174021   -0.090709
H       0.886077    3.488618   -1.205984
H       0.983975    3.799764    0.551876
H       1.461401    1.123576   -0.854529
H       1.535150    1.808048    2.135792
H       1.788668    0.195331    1.453327
H       4.564027    3.280938    0.745341
H       3.160610    3.513848    1.900152
H       3.729969    1.448330    3.141921
H       5.162365    1.114614    2.049399
