13

O      -0.097311   -0.000520    0.003709
C      -0.054711    1.221420    0.006648
C       1.191412    1.955669    0.000197
C       2.248951    2.528583   -0.005417
C      -1.288475    2.010143    0.017194
N      -1.438073    3.325932    0.021754
C      -2.783483    3.535422    0.031504
C      -3.463408    2.331068    0.032916
N      -2.497290    1.372583    0.023699
H       3.179654    3.041618   -0.010342
H      -3.203033    4.529952    0.037050
H      -4.513980    2.091327    0.039450
H      -2.598462    0.369395    0.021670
