14

N       0.035514    1.328923   -0.130978
C      -0.000137   -0.048606   -0.027297
N      -1.096682   -0.765699    0.014444
N      -0.610473   -2.060342   -0.009487
C      -1.071919   -3.361196    0.009617
C       0.082964   -4.114414   -0.011607
N       1.234450   -3.337502   -0.035187
C       0.744155   -2.123806   -0.034194
N       1.157469   -0.800263   -0.025356
H       0.647186    1.776776    0.540649
H      -0.898115    1.716512   -0.079235
H      -2.117506   -3.609818    0.036900
H       0.152326   -5.191527   -0.012032
H       2.075654   -0.468229   -0.262364
