20

C       0.003712    1.464107    0.040605
C      -0.059427   -0.022794   -0.036083
N      -1.078107   -0.749654    0.183617
C      -0.657746   -2.150496   -0.005830
C      -1.550391   -2.878762   -1.014825
C      -3.001093   -3.010404   -0.547138
O      -3.804949   -3.736119   -1.467007
C       0.828411   -2.039459   -0.446010
O       1.115245   -0.627150   -0.372965
H       0.745792    1.772644    0.783694
H       0.316053    1.881057   -0.921922
H      -0.973697    1.860091    0.313509
H      -0.736193   -2.664294    0.961814
H      -1.519581   -2.333629   -1.968865
H      -1.148185   -3.881728   -1.204826
H      -3.038536   -3.578930    0.389249
H      -3.415084   -2.014997   -0.339381
H      -3.896845   -3.199231   -2.260248
H       1.524599   -2.567353    0.210409
H       0.991250   -2.371668   -1.477239
