18

N       0.008624    1.268695   -0.077931
C       0.079258   -0.085495    0.088950
O       1.131020   -0.702711    0.106363
C      -1.248496   -0.760058    0.224172
C      -1.382215   -2.071338    0.442965
C      -2.819437   -2.515226    0.462701
C      -3.603525   -1.180993    0.509271
C      -2.602942   -0.090392    0.051720
O      -2.747993    1.153270    0.748407
H       0.878745    1.775980   -0.082236
H      -0.853225    1.752551    0.133228
H      -0.539650   -2.744769    0.549190
H      -3.050032   -3.086876   -0.446759
H      -3.048349   -3.180650    1.302626
H      -4.516630   -1.191022   -0.089542
H      -3.899843   -0.957165    1.540776
H      -2.763071    0.188037   -0.996979
H      -2.617629    0.973735    1.687528
