18

C       0.040941    1.546718   -0.066696
N       1.519147    1.537041    0.212959
C       1.557815    0.082890    0.239859
C       1.697401   -1.146997   -0.761152
C       1.740262   -2.040333    0.513777
C       1.264728   -0.882864    1.426329
O      -0.180293   -0.659055    1.292695
C       0.062781    0.000804    0.033347
C       0.216576   -0.920044   -1.206064
H      -0.531024    2.063313    0.710173
H      -0.256293    1.931597   -1.050610
H       2.132032    2.025178   -0.426873
H       2.473534   -1.303057   -1.510864
H       1.123412   -2.942938    0.511989
H       2.775369   -2.295645    0.761999
H       1.592299   -0.843927    2.466363
H       0.133473   -0.356732   -2.140526
H      -0.431481   -1.798352   -1.258466
