13

O       0.384291    0.292756    0.964041
C      -0.145347    0.240173   -0.353486
C      -1.492321   -0.393617   -0.264281
N      -2.516749   -0.085234   -0.997571
N      -3.489317   -0.975772   -0.598688
C      -3.097882   -1.827780    0.416038
O      -3.724166   -2.683151    1.000397
N      -1.763036   -1.435177    0.586235
H       1.305590    0.562442    0.907540
H      -0.260061    1.231587   -0.810423
H       0.501240   -0.361760   -1.011941
H      -4.414197   -0.920141   -0.986597
H      -1.161648   -1.767118    1.320383
