14

C       0.063236    1.513180    0.007664
C       0.032603   -0.001753    0.002019
O       1.049670   -0.676526   -0.009206
C      -1.275819   -0.652461    0.009814
C      -2.592954   -0.230895    0.021928
N      -3.446235   -1.296311    0.024593
C      -2.662937   -2.363356    0.014139
N      -1.354823   -2.030596    0.005026
H       1.099866    1.850779   -0.001364
H      -0.461461    1.911163   -0.867287
H      -0.443550    1.903911    0.896356
H      -2.962786    0.783779    0.028854
H      -3.003088   -3.388259    0.012833
H      -0.539906   -2.624732   -0.003796
