15

O       0.279890    0.979518    0.966563
C      -0.011936    0.238931   -0.184700
C      -1.408115   -0.349447   -0.138231
N      -2.135851   -0.091372    0.946305
C      -3.374773   -0.587117    1.036115
C      -3.948020   -1.368508    0.041670
C      -3.199992   -1.648974   -1.101542
C      -1.923345   -1.127520   -1.174567
F      -1.156050   -1.360490   -2.244557
H      -0.517400    0.924019    1.518219
H       0.076304    0.867474   -1.085635
H       0.712995   -0.580771   -0.314995
H      -3.924141   -0.346457    1.941452
H      -4.955565   -1.751543    0.153438
H      -3.586522   -2.252017   -1.914972
