19

N       1.216231   -0.576151    0.428213
C       0.573471    0.374513    0.292732
C      -0.256763    1.586887    0.126848
O       0.405796    2.783105    0.433197
C       1.229559    3.324076   -0.597313
C       2.649573    2.751454   -0.611667
N       3.429768    3.461916   -1.616137
C       4.180378    4.627709   -1.153037
C       4.879386    3.360409   -1.500704
H      -0.656256    1.590825   -0.898673
H      -1.106186    1.506249    0.813483
H       0.759282    3.186467   -1.581087
H       1.273495    4.399278   -0.397184
H       3.077035    2.829010    0.403515
H       2.634264    1.689919   -0.877879
H       4.204519    5.476387   -1.830299
H       4.120190    4.886950   -0.096777
H       5.285560    2.775121   -0.677468
H       5.421602    3.266812   -2.437151
