19

C      -0.142065    1.462564    0.047675
C       0.153663   -0.032839    0.057428
N       0.689066   -0.452452   -1.236496
C       0.871018   -1.773803   -1.532309
C       1.595909   -2.420636   -2.499271
C       1.282569   -3.789361   -2.285397
C       1.776922   -4.979251   -3.045129
N       0.453047   -3.964685   -1.282690
O       0.189728   -2.659313   -0.793115
H       0.768353    2.047462   -0.129038
H      -0.864682    1.712687   -0.734281
H      -0.551095    1.774124    1.012488
H       0.844912   -0.279178    0.877885
H      -0.762543   -0.600886    0.236780
H       1.397439    0.153287   -1.623154
H       2.241098   -1.989544   -3.245955
H       2.868779   -5.047497   -2.998204
H       1.350845   -5.893583   -2.627784
H       1.497548   -4.912305   -4.101742
