16

N      -0.016293   -1.115721   -0.197201
C      -0.021298    0.032183   -0.076343
C      -0.000070    1.500468    0.015376
O      -0.723848    1.874926    1.165757
C      -0.701147    3.282082    1.375967
C       0.693019    3.769513    1.779040
C       1.761932    3.166650    0.884655
O       2.169239    1.829315    1.207389
C       1.434309    2.024803    0.014057
H      -0.490745    1.895415   -0.893330
H      -1.034718    3.798248    0.460811
H      -1.435829    3.476830    2.160230
H       0.728707    4.862566    1.719854
H       0.909243    3.488324    2.814704
H       2.586935    3.814887    0.592668
H       1.978105    1.857695   -0.915740
