17

C      -0.051237    1.625197    0.029900
C       1.435856    1.217173    0.002090
C       1.113453    0.153610    1.091486
O       1.981332   -0.930188    1.252992
C       2.018819   -1.764414    0.101101
C       1.993661   -0.923393   -1.174876
N       1.056643    0.212193   -1.082637
C      -0.016193    0.083668    0.006855
H      -0.424288    2.103392    0.937336
H      -0.417771    2.086554   -0.886457
H       2.320057    1.849307   -0.100543
H       0.850590    0.514756    2.090579
H       2.920751   -2.378188    0.177089
H       1.149035   -2.439260    0.115778
H       2.985391   -0.509818   -1.394409
H       1.706861   -1.550391   -2.027356
H      -0.856350   -0.606647   -0.083792
