23

O      -0.054253    1.465916   -0.013412
C       0.033788    0.049507    0.044878
C      -1.378537   -0.514874   -0.030169
C      -1.413188   -2.045821    0.016514
C      -2.826033   -2.634780   -0.028202
C      -3.616776   -2.349351   -1.337370
C      -4.439056   -3.601330   -1.530604
C      -4.036574   -4.591405   -0.736257
C      -2.871548   -4.180551    0.131277
H       0.836666    1.824510    0.032427
H       0.637019   -0.346379   -0.789114
H       0.517295   -0.281380    0.979146
H      -1.962302   -0.099506    0.800912
H      -1.845921   -0.149185   -0.951959
H      -0.831065   -2.454030   -0.822411
H      -0.911226   -2.391761    0.930813
H      -3.403025   -2.204427    0.800534
H      -4.226195   -1.441182   -1.269995
H      -2.937884   -2.197817   -2.190972
H      -5.233933   -3.670863   -2.265470
H      -4.452017   -5.593329   -0.723082
H      -1.940484   -4.647812   -0.225036
H      -2.982473   -4.485860    1.178432
