17

C      -0.407399    1.420907    0.608609
O      -0.419202    0.011813    0.605131
C      -0.837437   -0.528234   -0.631269
C      -0.842854   -2.037437   -0.501970
C      -1.997009   -2.695548    0.274122
O      -3.189718   -2.368579   -0.427187
C      -2.435651   -3.515867   -0.883960
C      -1.302724   -2.916279   -1.714678
O      -0.848922   -3.126145   -2.798177
H      -0.075886    1.742059    1.598886
H       0.284657    1.824857   -0.146910
H      -1.408084    1.837592    0.414799
H      -1.845184   -0.172377   -0.895030
H      -0.153925   -0.228450   -1.442738
H       0.140385   -2.393379   -0.171735
H      -2.068380   -2.932029    1.327784
H      -2.954089   -4.464711   -0.947464
