17

C       0.257443    1.386628    0.157003
N       0.103793   -0.053383    0.051890
C      -0.061230   -0.764383   -1.118558
C      -0.233703   -2.068420   -0.742687
N      -0.182061   -2.182440    0.625579
C       0.017415   -0.960837    1.073644
C       0.119886   -0.606472    2.531978
C       1.412339   -0.047697    2.930674
C       2.470975    0.421339    3.253372
H       0.911759    1.629172    0.995933
H       0.712402    1.766967   -0.759727
H      -0.708910    1.883410    0.299379
H      -0.034888   -0.275930   -2.078995
H      -0.385154   -2.929722   -1.375220
H      -0.678022    0.092809    2.819025
H      -0.068772   -1.534800    3.079603
H       3.411627    0.818537    3.545064
