19

C      -0.048029    1.435412    0.007924
C       0.018578   -0.072642   -0.008501
O      -1.134653   -0.557076   -0.640658
C      -1.261831   -1.967981   -0.757056
C      -0.101094   -2.726988   -0.163791
C       1.318935   -2.233376   -0.250724
C       0.603722   -2.279547    1.089492
C       0.657362   -0.732857    1.183172
C       1.382358   -0.686053   -0.175341
H       0.834976    1.859340    0.493600
H      -0.104946    1.822348   -1.013968
H      -0.938793    1.768514    0.549039
H      -2.197190   -2.268862   -0.261865
H      -1.363403   -2.215094   -1.824414
H      -0.200376   -3.805924   -0.253943
H       2.133976   -2.849176   -0.607847
H       0.778982   -2.936648    1.931241
H       0.887838   -0.199684    2.097942
H       2.254747   -0.111455   -0.463384
