21

C       0.164106    1.618367   -0.056939
C       0.106614    0.099834    0.005885
C       1.034112   -0.744898   -0.924293
C       1.316298   -1.718900    0.261953
O       0.785348   -3.009744    0.162434
C       2.678717   -1.527873    0.944632
O       3.770178   -1.381400    0.062921
C       2.110058   -0.277596    1.686405
C       0.670206   -0.669306    1.229616
H       1.183960    1.995784    0.071189
H      -0.196990    1.980887   -1.026035
H      -0.460362    2.072359    0.720919
H      -0.928977   -0.225400   -0.143104
H       0.542146   -1.214356   -1.779414
H       1.928507   -0.221591   -1.270567
H       1.198025   -3.443148   -0.593356
H       2.837534   -2.358212    1.647794
H       4.568197   -1.248182    0.583795
H       2.272430   -0.257182    2.765890
H       2.475480    0.660118    1.260843
H      -0.016511   -0.957019    2.025795
