15

O      -0.076504    1.385327    0.020127
C       0.002085    0.014996   -0.051204
C       0.591607   -0.726710   -1.295004
N       0.831132   -2.133241   -0.920835
C      -0.535131   -1.681408   -1.260555
C      -1.145971   -0.964910   -0.024204
C      -0.195564   -0.871884    1.170101
C       0.662634   -1.880937    1.736953
N       1.318037   -2.626292    2.332106
H       0.763637    1.724486    0.352493
H       1.085610   -0.240425   -2.125513
H       1.221113   -2.622650   -1.725299
H      -1.104110   -2.126999   -2.064670
H      -2.203949   -0.779538    0.105151
H      -0.666831   -0.276525    1.950352
