18

C      -0.181033    1.318228   -0.077583
O       0.074244   -0.062381    0.001411
C       0.607790   -0.588241   -1.192989
C       0.782840   -2.082583   -1.006874
O      -0.452761   -2.830290   -1.113494
C       0.000184   -3.519382   -2.294882
C       1.393654   -2.858335   -2.195625
O       1.801958   -2.024104   -3.254552
H       0.735720    1.893224   -0.287104
H      -0.917836    1.554439   -0.861776
H      -0.581916    1.633062    0.889085
H      -0.057396   -0.390396   -2.047148
H       1.586048   -0.134013   -1.424240
H       1.261447   -2.261251   -0.036371
H      -0.042772   -4.609357   -2.179730
H      -0.555848   -3.221974   -3.193946
H       2.192598   -3.549635   -1.901322
H       2.172660   -2.571861   -3.952952
