20

C      -0.076299    1.436365   -0.026925
O      -0.040482    0.027009    0.133909
C      -1.269120   -0.591874   -0.005270
O      -1.727799   -0.501602   -1.379233
C      -1.595410   -1.758313   -1.881881
N      -1.287134   -2.712865   -1.112910
C      -1.172696   -2.130049    0.247267
C       0.147693   -2.562757    0.887311
C      -2.371504   -2.609173    1.078722
H       0.930984    1.803969    0.177526
H      -0.367067    1.715146   -1.045917
H      -0.779406    1.897578    0.682135
H      -2.031566   -0.085936    0.602542
H      -1.784919   -1.837150   -2.947034
H       0.997380   -2.249921    0.279292
H       0.261233   -2.128706    1.884693
H       0.160859   -3.652357    0.974408
H      -2.385916   -3.701297    1.116272
H      -2.311875   -2.225096    2.102781
H      -3.315613   -2.273686    0.637664
