14

N       0.141083    1.323940   -0.212242
C       0.017551   -0.041591   -0.088645
N      -1.105916   -0.719687    0.061401
C      -0.663245   -2.000825    0.217191
N       0.640721   -2.171701    0.165847
N       1.082138   -0.883338   -0.026649
C       2.496665   -0.595172   -0.042122
C       2.902422    0.139427   -1.248399
N       3.182121    0.762437   -2.180134
H       0.822236    1.641112   -0.890967
H      -0.759465    1.762907   -0.347575
H      -1.333185   -2.834757    0.365949
H       2.788585   -0.005590    0.836059
H       3.014074   -1.555686    0.004815
