24

C       0.407441    1.561434   -0.024286
C      -0.150372    0.141779   -0.102302
N       0.486577   -0.585372   -1.195711
C       1.677996   -1.376018   -0.893000
C       0.399896   -2.047070   -1.272020
C      -0.362905   -2.867907   -0.250546
C       0.236906   -2.531910   -2.698852
O       0.725023   -3.855109   -2.794087
C       0.564757   -4.405244   -4.078301
H       1.480529    1.546121    0.193133
H       0.264130    2.082896   -0.974682
H      -0.090461    2.130338    0.767180
H      -0.024493   -0.353033    0.874617
H      -1.227623    0.176697   -0.305424
H       2.500993   -1.300988   -1.599698
H       1.983406   -1.451898    0.150606
H      -0.134781   -2.579663    0.777128
H      -1.444997   -2.771530   -0.401747
H      -0.103273   -3.922193   -0.375717
H      -0.829537   -2.497032   -2.986837
H       0.780832   -1.858769   -3.378655
H       1.107434   -3.826101   -4.842528
H       0.967757   -5.420846   -4.054070
H      -0.495480   -4.450276   -4.375565
