17

O       0.026091   -0.039470    0.113956
C       0.060260    1.130312   -0.185709
C       1.299553    1.979391   -0.069622
C       1.376456    3.277792   -0.896479
N       0.224174    4.110005   -0.472889
C       1.473746    4.118965    0.328462
C       1.391874    2.885720    1.205647
C       0.798691    2.677885    2.540882
N       2.265638    2.643127    2.335781
H      -0.842734    1.671276   -0.534494
H       2.191879    1.354094   -0.159571
H       1.836656    3.403557   -1.867648
H       0.227524    4.948863   -1.052383
H       2.023996    5.030719    0.520775
H       0.435631    3.524154    3.116717
H       0.278928    1.740497    2.721468
H       2.601650    1.682733    2.333763
