15

C       0.048980    1.550819   -0.171011
C      -0.028596    0.039653    0.043163
N       0.592853   -0.718689   -1.059377
C       1.840624   -1.112689   -0.620124
N       2.083760   -1.045407    0.633226
C       0.838379   -0.516234    1.234696
C       1.109628    0.468000    2.285368
N       1.289896    1.249988    3.116294
H       1.087637    1.882187   -0.265232
H      -0.491026    1.832886   -1.081039
H      -0.402799    2.085370    0.668526
H      -1.070734   -0.266149    0.166589
H       0.508803   -0.345333   -1.994802
H       2.557205   -1.503084   -1.337058
H       0.306871   -1.353374    1.706885
