18

C      -0.048109    1.520478    0.206115
C      -0.037522   -0.001063    0.062109
C      -1.446850   -0.589030   -0.037379
O      -2.140035   -0.104763   -1.170726
O       0.610187   -0.428999   -1.140226
C       2.002371   -0.256688   -1.192016
C       2.532517   -1.040666   -2.382034
O       3.673359   -0.993545   -2.755695
H       0.962737    1.937050    0.212519
H      -0.614701    1.968695   -0.613396
H      -0.526782    1.800741    1.149644
H       0.476303   -0.456979    0.924921
H      -1.369498   -1.686837   -0.052681
H      -2.031739   -0.301937    0.842209
H      -1.571163   -0.287603   -1.927597
H       2.304952    0.795149   -1.302150
H       2.493407   -0.642012   -0.281632
H       1.762946   -1.675435   -2.874870
