16

C       0.032769    1.527852    0.038576
C       0.020588    0.029254    0.024699
C      -0.060202   -0.810606   -1.079158
N      -0.041800   -2.096974   -0.663933
C       0.051462   -2.149641    0.715588
C       0.088704   -3.410322    1.402806
O       0.041700   -4.489107    0.830467
C       0.090875   -0.825563    1.152608
O       0.181825   -0.467118    2.456905
H       0.955535    1.931053    0.475712
H      -0.041233    1.926895   -0.976387
H      -0.807933    1.943811    0.609006
H      -0.129371   -0.556613   -2.126017
H      -0.086049   -2.933846   -1.221405
H       0.163843   -3.339228    2.506088
H       0.193149    0.493595    2.516623
