13

O       0.325231    1.264997   -0.416968
C       0.008307   -0.034279   -0.042494
C       0.612978   -0.481013    1.269210
N       1.703248   -0.027361    1.704842
O      -0.195349   -1.392053    1.880810
C      -1.492661   -1.427440    1.259433
C      -1.475640   -0.327559    0.189445
O      -2.430892    0.170747   -0.330462
H       1.131546    1.487943    0.072086
H       0.321487   -0.773274   -0.809558
H       1.943951   -0.399490    2.623382
H      -1.664910   -2.414044    0.814507
H      -2.263100   -1.237394    2.011274
