15

C       0.017989    1.410191    0.008943
N       0.026731   -0.044926    0.004519
C      -1.089305   -0.638147    0.011023
C      -1.274253   -2.144407    0.007843
O      -2.694907   -2.347463    0.017764
C      -3.341335   -1.146253    0.026286
N      -4.586317   -0.946080    0.036253
N      -2.381721   -0.144706    0.022096
H       1.045636    1.779928    0.001020
H      -0.491873    1.825905   -0.873752
H      -0.476177    1.820410    0.903046
H      -0.844939   -2.603450   -0.887413
H      -0.831726   -2.608822    0.893851
H      -5.090314   -1.830133    0.037379
H      -2.647378    0.824710    0.027309
