18

C       0.166986    1.384423    0.194925
C       0.082303   -0.091127    0.021256
N      -0.146382   -0.730742   -1.057986
C      -0.084727   -2.133566   -0.730357
C       1.235068   -2.681455   -0.187140
C       2.568628   -1.974625   -0.321521
O       3.299555   -1.956932    0.896761
C       0.178093   -2.192293    0.763405
O       0.276150   -0.829440    1.164003
H       1.181202    1.681702    0.480714
H      -0.099872    1.874947   -0.740544
H      -0.506571    1.711796    0.992692
H      -0.752400   -2.788568   -1.276406
H       1.287723   -3.766425   -0.217994
H       3.194833   -2.513008   -1.039111
H       2.427544   -0.961455   -0.719623
H       2.762244   -1.476565    1.536043
H      -0.301080   -2.816748    1.506302
