20

C       0.371409    1.268795   -0.239707
N      -0.153857   -0.052241    0.184878
H      -1.170814   -0.024296    0.261099
H       0.077477   -0.827496   -0.484493
C       0.429378   -0.644922    1.466809
C       0.285460   -2.163619    1.332514
O       0.548966   -2.494923   -0.048328
C       1.876150   -2.945150   -0.360187
C       1.141730   -2.846194    2.488904
O       1.317153   -2.051013    3.431741
O       1.467607   -4.022331    2.299605
H       1.449251    1.181944   -0.378555
H      -0.099756    1.569470   -1.177293
H       0.163138    2.005897    0.537010
H       1.478295   -0.348662    1.503188
H      -0.086414   -0.236765    2.331241
H      -0.762799   -2.450063    1.489053
H       1.861424   -3.203933   -1.421946
H       2.622348   -2.153801   -0.195573
H       2.121124   -3.805039    0.263477
