15

N      -0.044168    1.223574    0.339078
C       0.059752   -0.036499   -0.140713
O       1.051598   -0.526577   -0.649268
C      -1.256675   -0.825173   -0.043985
N      -1.050740   -2.237950   -0.293477
C      -1.421687   -2.925132    0.827929
C      -2.010023   -2.154442    1.786073
C      -1.923659   -0.775442    1.358820
O      -2.261624    0.262317    1.906433
H       0.796678    1.775932    0.395451
H      -0.828654    1.439173    0.946615
H      -1.960883   -0.391402   -0.764808
H      -0.194646   -2.475776   -0.779586
H      -1.242784   -3.993240    0.866484
H      -2.429877   -2.493494    2.719571
