18

C      -0.105064    1.575348   -0.153860
C       0.017843    0.066839    0.002042
C       1.036085   -0.657989   -0.891495
O       2.342329   -0.202121   -0.500904
C       1.729542   -1.246850    0.259541
C       0.769202   -0.575167    1.257799
C       1.387664    0.353279    2.288817
O       0.003056   -1.604438    1.860892
H       0.881010    2.046582   -0.175411
H      -0.619923    1.828269   -1.087436
H      -0.678686    2.018667    0.667295
H      -0.957743   -0.425445   -0.062495
H       0.927124   -1.019883   -1.907695
H       2.264252   -2.182480    0.377149
H       2.082557    1.049744    1.814576
H       0.616881    0.939838    2.804289
H       1.929061   -0.231220    3.039132
H      -0.658818   -1.190864    2.425425
