15

C      -0.203964    1.432847    0.061560
C       0.077222   -0.063868    0.048200
C       0.934526   -0.512542   -1.145967
C       2.182282   -0.411769   -0.382496
C       1.299086   -0.506290    0.922483
C       1.349266   -1.995421    0.619338
O       1.327078   -3.012419    1.235177
N       1.667115   -1.788058   -0.796234
H       0.714547    2.011392   -0.083589
H      -0.903128    1.703435   -0.737145
H      -0.650997    1.736784    1.013090
H      -0.844570   -0.630986    0.224886
H       0.753207   -0.362768   -2.203115
H       3.198434   -0.110316   -0.586130
H       1.481506   -0.095457    1.911686
