20

C      -0.161108    1.640300    0.095355
C      -0.056368    0.122167    0.029058
C       0.448961   -0.498238   -1.282910
N       1.845983   -0.030565   -1.459394
C       1.561785   -1.197173   -0.589240
C       1.131038   -0.637715    0.770776
C       2.171412    0.154232    1.572350
C       1.638670    0.565656    2.924714
O       1.514146    1.698284    3.315055
H       0.734350    2.108813   -0.319557
H      -1.023353    1.986602   -0.485418
H      -0.286429    1.992588    1.123397
H      -1.004715   -0.337019    0.324171
H      -0.139218   -0.811411   -2.137161
H       2.175536   -0.395391   -2.352263
H       2.016450   -2.160569   -0.788326
H       0.716606   -1.438082    1.393459
H       3.036075   -0.502310    1.751843
H       2.514801    1.032616    1.024223
H       1.340510   -0.293948    3.573677
