21

C      -0.229614    1.385392   -0.048816
N       0.016907   -0.045162    0.051423
C       1.392579   -0.503735   -0.159256
C       0.770451   -0.524801    1.187599
C       1.288166    0.230497    2.444947
C       0.923614   -1.026489    3.262260
C       1.648145   -1.551036    4.461644
N      -0.539956   -1.186262    3.082007
C       0.396982   -1.711597    2.043967
H       0.608821    2.007964    0.305655
H      -0.426301    1.643423   -1.094384
H      -1.116705    1.637834    0.539905
H       1.504676   -1.413914   -0.744364
H       2.164997    0.246264   -0.333604
H       2.361809    0.433324    2.410652
H       0.747799    1.135603    2.733810
H       1.467376   -0.921286    5.341097
H       1.320562   -2.567621    4.706060
H       2.729578   -1.578549    4.289660
H      -0.821374   -1.989708    3.646237
H       0.390501   -2.760087    1.769785
