15

N      -0.001633    1.336507    0.009732
C       1.164511    2.070451    0.002268
N       2.348509    1.546551   -0.012099
C       2.422255    0.185292   -0.020114
C       3.515712   -0.652346   -0.035122
C       3.021382   -1.994618   -0.037603
C       1.636053   -2.021364   -0.024340
C       1.204472   -0.668684   -0.012783
C       0.002471   -0.031166    0.002380
H      -0.880546    1.828993    0.020942
H       1.032473    3.147487    0.009327
H       4.552679   -0.350874   -0.043515
H       3.653966   -2.874250   -0.048469
H       1.003272   -2.897021   -0.022939
H      -0.967122   -0.515389    0.009215
