14

O       0.079592    1.329505    0.192596
C       0.068146   -0.009102   -0.001280
C       0.080557   -0.771843   -1.153031
C       0.056736   -2.118654   -0.676408
C       0.031440   -2.117032    0.717344
N       0.038973   -0.791217    1.126605
C       0.009062   -3.465052    1.115896
N       0.019652   -4.259043    0.043022
N       0.048677   -3.428633   -1.036366
H       0.100014    1.764144   -0.665461
H       0.103095   -0.399190   -2.164123
H       0.025997   -0.426785    2.061973
H      -0.013747   -3.902334    2.102235
H       0.060488   -3.836159   -1.953598
