17

C       0.491964    1.799028   -0.243380
C       0.182688    0.311768   -0.228205
O       1.211623   -0.389249   -1.004681
C       1.868842   -1.169703   -0.132186
N       1.465839   -1.265270    1.068009
C       0.258392   -0.422084    1.151658
C       0.236343    0.501366    2.377401
N       1.286801    0.341933    3.217488
O      -0.674282    1.290733    2.553217
H       1.447934    2.002836    0.249380
H       0.550111    2.155495   -1.275059
H      -0.289622    2.344668    0.287608
H      -0.765866    0.113315   -0.730589
H       2.732340   -1.682541   -0.542626
H      -0.615307   -1.073521    1.274991
H       1.953274   -0.393009    3.041579
H       1.294531    0.850779    4.085741
