20

C      -0.300046    1.340524    0.507293
O      -0.294521   -0.072319    0.590411
C      -1.355194   -0.679029   -0.109551
C      -1.182911   -2.206180    0.001779
C      -2.475303   -2.685449    0.692668
C      -3.027127   -1.402055    1.339715
C      -2.524925   -1.151547    2.762319
O      -2.618951   -0.361999    0.437349
H       0.568931    1.698353    1.064097
H      -0.218376    1.679486   -0.537157
H      -1.212469    1.765515    0.941288
H      -1.367297   -0.298313   -1.141824
H      -1.039683   -2.665513   -0.978162
H      -0.291991   -2.408559    0.599503
H      -3.188631   -3.063168   -0.045383
H      -2.296790   -3.479685    1.421638
H      -4.121891   -1.386773    1.335364
H      -1.432624   -1.170867    2.803928
H      -2.860518   -0.171133    3.112498
H      -2.917705   -1.912696    3.445235
