16

O       0.342050    1.316587   -0.352582
C       0.085000   -0.010501   -0.034163
C       0.174672   -0.426234    1.500921
C      -1.358607   -0.418337    1.486474
N      -1.908202    1.004496    1.256521
C      -2.722544    0.179324    0.305904
C      -1.424353   -0.556538   -0.069084
C      -2.840756   -0.907851    1.485375
O      -3.606051   -1.638997    2.014448
H      -0.313948    1.824859    0.146860
H       0.719468   -0.625741   -0.675974
H       0.595016   -1.426522    1.628169
H       0.665913    0.278787    2.173863
H      -2.451575    1.321486    2.061658
H      -3.517004    0.603539   -0.308818
H      -1.519378   -1.551986   -0.503266
