15

C      -0.018963    1.532692    0.054780
C       0.004236    0.027561    0.021293
C      -1.150244   -0.713080    0.061131
N      -2.399781   -0.158270    0.158991
O      -1.195128   -2.040680    0.048285
N       0.197912   -2.791966    0.067793
N       1.172173   -2.106380    0.019961
C       1.257446   -0.652674   -0.053761
N       2.413411   -0.116091   -0.162268
H       0.987554    1.901778    0.257064
H      -0.336734    1.968194   -0.902649
H      -0.690312    1.911239    0.834349
H      -2.508694    0.786078   -0.173771
H      -3.165206   -0.780411   -0.050225
H       3.137912   -0.832576   -0.169120
