16

C       0.164639    1.429032    0.361361
N       1.071130    2.137310   -0.551551
C       2.162241    1.401077   -0.975490
C       2.096557    0.024650   -1.072206
N       3.307746   -0.334063   -1.643649
C       4.013618    0.812853   -1.832823
N       3.344633    1.889044   -1.444700
C       0.895714   -0.689276   -0.741910
C      -0.068782    0.001608   -0.106838
H       0.553811    1.412007    1.401819
H      -0.783210    1.976359    0.393486
H       1.284425    3.089717   -0.292781
H       3.627464   -1.267325   -1.838655
H       5.011723    0.812857   -2.243265
H       0.753722   -1.725285   -1.033475
H      -1.013486   -0.461952    0.152099
