18

C       0.066702    1.417308    0.224696
O       0.055856    0.022402    0.016152
C       0.589269   -0.684761    1.091439
C       0.541000   -2.169127    0.787712
O       0.119992   -2.688038   -0.203076
O       1.072677   -2.837976    1.862707
C       1.128861   -4.211354    1.803575
N       1.611988   -4.830000    2.780113
C       1.658776   -6.276681    2.689650
H       1.089356    1.800843    0.364599
H      -0.366714    1.877413   -0.665436
H      -0.532079    1.702993    1.103525
H       1.638818   -0.412460    1.297863
H       0.034495   -0.510020    2.029533
H       0.730788   -4.627079    0.875506
H       1.098123   -6.707411    3.526201
H       1.254208   -6.681741    1.749550
H       2.696635   -6.610087    2.796332
