19

O      -0.582987    0.256606    0.076193
C      -0.077352    1.348340    0.096296
C       1.353827    1.647159   -0.307032
C       1.412728    2.759209   -1.339066
C       1.365620    4.215404   -0.930016
C       2.624962    3.643922   -1.535099
C       3.893541    3.502672   -0.711786
C       4.686790    4.795010   -0.705030
O       5.068352    5.360926    0.285545
H      -0.654631    2.244869    0.420430
H       1.887226    1.948910    0.604120
H       1.808665    0.721304   -0.672716
H       0.884503    2.516448   -2.257766
H       0.766587    4.906631   -1.511784
H       1.386758    4.435239    0.133417
H       2.813602    3.918914   -2.570150
H       3.693678    3.228514    0.326710
H       4.534031    2.723128   -1.150991
H       4.900846    5.206977   -1.719407
