13

O      -0.011283   -0.000302    0.015514
C      -0.047298    1.195823    0.023684
C      -1.242291    2.166737    0.022010
O      -0.694369    3.205941   -0.812433
C       0.439667    3.551800    0.006592
C      -0.180414    3.656819    1.400631
C      -1.211220    2.807963    1.410083
C       1.163385    2.192799    0.012584
O       2.330248    1.927904   -0.005900
H      -2.182835    1.786627   -0.369720
H       0.988768    4.398385   -0.398797
H       0.217604    4.248422    2.212399
H      -1.859254    2.538150    2.231443
