17

C      -0.021691    1.535876    0.076954
C       1.518387    1.467086   -0.020831
C       2.151890    0.734549    1.234337
C       1.052847    0.231179    2.181569
N       0.590432   -0.744230    1.132957
C      -0.021556   -0.002299   -0.059582
C       1.379495    0.076133   -0.749023
C       1.969800   -0.623476    0.485569
H      -0.495297    2.009139    0.942137
H      -0.440110    1.976306   -0.834536
H       2.080724    2.309369   -0.422337
H       3.096691    1.130142    1.612433
H       1.464362   -0.338224    3.021863
H       0.297117    0.922060    2.566653
H      -0.899471   -0.514103   -0.456476
H       1.590337   -0.111155   -1.799897
H       2.641509   -1.482243    0.527347
