18

O      -0.078523   -0.039839    0.041927
C      -0.012798    1.169837    0.036252
N       1.150147    1.894732   -0.009304
C       2.408356    1.271161   -0.054911
C       3.496137    2.047263   -0.097816
C       3.281183    3.545614   -0.093702
C       2.224193    3.869094    1.012839
C       1.171141    3.358567   -0.013960
C       2.144106    3.863461   -1.119534
H      -0.902308    1.827857    0.067945
H       2.379385    0.190890   -0.050970
H       4.489374    1.619528   -0.133986
H       4.205328    4.121848   -0.129933
H       2.304209    3.347507    1.968112
H       2.111351    4.943683    1.171132
H       0.146777    3.731823    0.023528
H       2.019496    4.937223   -1.274583
H       2.152347    3.336827   -2.075353
