16

O      -0.277970    0.410727   -0.804501
C       0.012660    1.156090    0.100091
C       1.312729    1.843681    0.215064
C       1.752709    2.945122    1.189234
C       3.268810    2.971589    1.030459
C       3.769193    1.667912    0.442457
C       2.577249    1.360681   -0.436041
N       1.938148    2.580155   -0.965604
C       2.379508    3.647001    0.019701
H      -0.698091    1.363099    0.931809
H       1.202780    3.333436    2.034510
H       3.860181    3.574142    1.707713
H       4.686441    1.796970   -0.141528
H       3.935222    0.887628    1.191889
H       2.523549    0.500574   -1.092925
H       2.401644    4.682644   -0.288456
