18

O       0.163411    1.404990    0.035120
C       0.112471   -0.001815    0.135709
C      -1.330717   -0.497822    0.000214
O      -1.897003   -0.000219   -1.212500
C      -1.446556   -2.019694    0.089346
C      -2.846190   -2.667098   -0.010031
O      -2.419868   -3.412025   -1.199245
C      -1.201538   -2.781525   -1.201879
N      -0.270737   -2.790382   -2.045918
H      -0.416483    1.634320   -0.702309
H       0.734098   -0.494300   -0.630617
H       0.516072   -0.274085    1.117564
H      -1.929771   -0.040809    0.796749
H      -1.414799   -0.418216   -1.940224
H      -0.853497   -2.404195    0.923804
H      -3.141366   -3.344863    0.792728
H      -3.653982   -1.977803   -0.264575
H      -0.483823   -3.401823   -2.836218
