12

O      -0.790684    1.362458   -0.078007
C       0.290250    0.945072   -0.393990
C       1.570402    1.779875   -0.246252
O       2.646450    1.270233   -0.372070
C       1.338818    3.280241    0.112880
C       2.533549    3.918300    0.644937
C       3.519677    4.428523    1.097145
C       0.832957    3.952299   -1.094222
N       0.438850    4.451196   -2.058331
H       0.476279   -0.077545   -0.776764
H       0.521948    3.293885    0.847528
H       4.392895    4.885947    1.493946
