15

O      -0.097429    0.000689    0.390668
C      -0.109943    1.166614    0.060123
C       1.116407    1.995559    0.100687
N       2.076488    2.634358    0.177913
N      -1.168991    1.837894   -0.477284
C      -1.688855    3.217814   -0.124221
C      -2.927258    2.860331   -0.993347
C      -2.616238    1.611961   -0.117569
C      -2.422153    2.578440    1.092927
H      -1.044137    4.093645   -0.166719
H      -3.847943    3.394727   -0.760380
H      -2.750548    2.755305   -2.063398
H      -3.055221    0.617913   -0.144915
H      -1.794049    2.213480    1.906830
H      -3.312886    3.095989    1.455499
