20

C      -0.067585    1.561943    0.023536
C       0.030773    0.029343    0.002375
C       0.700625   -0.487120   -1.280902
C       1.009978   -1.984027   -1.180247
C       1.975137   -2.281256   -0.022743
O       3.342089   -2.033171   -0.378946
C       1.606148   -1.512907    1.220567
C       0.749124   -0.490506    1.225560
H       0.928617    2.018267    0.010321
H      -0.618022    1.930127   -0.848287
H      -0.584469    1.915538    0.921963
H      -0.998779   -0.364375    0.029745
H       0.064374   -0.277805   -2.147661
H       1.635067    0.068888   -1.444390
H       0.076932   -2.538988   -1.014959
H       1.453824   -2.360653   -2.106765
H       1.950174   -3.356388    0.191553
H       3.484245   -1.082965   -0.315935
H       2.107817   -1.812739    2.137461
H       0.534248    0.021556    2.162652
