18

C      -0.336795    0.900237   -1.086685
C       0.067942    0.051596    0.121208
N       1.251179   -0.806396   -0.086440
C       1.107848   -1.869921   -0.984669
C       1.501691   -2.047530   -2.300656
O       2.120504   -1.077484   -3.041518
C       1.109868   -3.358860   -2.637815
N       0.506064   -3.964939   -1.614010
N       0.524334   -3.051058   -0.629128
H       0.467568    1.587921   -1.369453
H      -0.557916    0.268356   -1.951737
H      -1.226788    1.496829   -0.859655
H       0.283220    0.694011    0.982268
H      -0.761184   -0.599957    0.417494
H       2.048712   -0.242328   -0.359158
H       2.470902   -1.477329   -3.842493
H       1.232921   -3.878586   -3.577838
H       0.160791   -3.286585    0.278688
