13

N      -0.086709    1.434763    0.173740
C      -0.113571    0.044874    0.040892
C      -1.194387   -0.640144   -0.313135
O      -1.208580   -2.005113   -0.438585
C      -0.068257   -2.723231   -0.195208
N      -0.027641   -3.979203   -0.295763
C       1.188503   -1.970746    0.210103
O       2.226529   -2.508827    0.440360
O       1.087183   -0.612537    0.305985
H       0.594798    1.855734   -0.451817
H       0.156584    1.714391    1.120116
H      -2.144529   -0.178659   -0.529202
H      -0.941354   -4.344087   -0.574143
