14

O      -0.087750    1.446815   -0.028944
C       0.001157    0.037195    0.023546
C       0.639277   -0.508978    1.304995
C      -0.175708   -1.335366    1.958458
C      -1.493757   -1.432737    1.255340
O      -2.171964   -0.154852    1.200726
C      -1.418000   -0.567164    0.074267
C       0.721432   -0.479787   -1.162048
N       1.300864   -0.867909   -2.083985
H       0.804106    1.811013   -0.066470
H       1.627918   -0.190887    1.614225
H       0.041321   -1.832553    2.895482
H      -2.136254   -2.303711    1.323951
H      -1.960341   -0.725290   -0.852114
