18

C       0.008911    1.579881   -0.024842
C       0.006985    0.053049    0.042548
C       0.798365   -0.624156   -1.116396
N       2.037668   -1.174454   -0.533116
C       1.925085   -1.057441    0.728088
N       0.765167   -0.455370    1.207675
C       0.317394   -0.322142    2.511304
N       1.102166   -0.943640    3.471734
O      -0.672596    0.327253    2.789398
H       1.033164    1.962499   -0.088124
H      -0.533917    1.909967   -0.916736
H      -0.474647    2.000876    0.857871
H      -1.021631   -0.309489    0.109934
H       0.237095   -1.439149   -1.588063
H       1.047430    0.094007   -1.903731
H       2.690582   -1.374656    1.428278
H       1.546313   -1.818442    3.238295
H       0.654589   -0.941002    4.376317
