18

C      -0.105585    1.595867   -0.021458
C      -0.051067    0.076326   -0.012290
C       1.166992   -0.628796   -0.629001
N       2.071703   -0.251201    0.576833
C       2.517013   -1.708295    0.694972
C       1.063530   -1.900781    0.289853
C       0.281764   -3.147242    0.067693
O       0.742433   -4.256115    0.193176
C       0.675114   -0.635773    1.139565
H       0.863713    2.020827    0.249875
H      -0.381284    1.968905   -1.013580
H      -0.854795    1.962190    0.688444
H      -1.013866   -0.370275   -0.281827
H       1.562688   -0.600532   -1.646513
H       3.292045   -1.987006   -0.024477
H       2.809739   -1.993829    1.709239
H      -0.782435   -2.997055   -0.228178
H       0.488573   -0.615877    2.215441
