19

C      -0.698424    1.450655   -0.601648
C      -0.251538    0.018557   -0.346446
N       1.046393   -0.471278   -0.935177
C       1.862616    0.388187   -1.771689
C       1.546193   -0.838172    0.383461
C       1.570334    0.325525    1.362523
C       0.271808   -0.375117    1.043890
O      -0.480924   -1.048133    1.988523
H       0.038114    2.186193   -0.266791
H      -0.891027    1.624440   -1.665553
H      -1.634505    1.642014   -0.065488
H      -1.051939   -0.670101   -0.645538
H       2.202699    1.323473   -1.293670
H       2.755753   -0.167241   -2.078078
H       1.312172    0.652211   -2.680155
H       2.131697   -1.738594    0.534734
H       1.969118    0.070174    2.339883
H       1.779349    1.340742    1.037194
H      -0.821265   -0.404170    2.618637
