17

C       0.074120    1.297505    0.336077
O      -0.017718    0.018411   -0.269442
C      -1.275274   -0.557692   -0.184475
C      -1.775603   -1.125668    1.128528
C      -1.431552   -2.040889   -0.048043
C      -2.588661   -2.433528   -0.946048
O      -2.992580   -3.552394   -1.155849
C      -3.115527   -1.161446   -1.527341
C      -2.363369   -0.127455   -1.129567
H       1.110485    1.623159    0.226708
H      -0.579791    2.033326   -0.152541
H      -0.182981    1.256632    1.403258
H      -1.067902   -1.148524    1.951346
H      -2.813986   -0.986415    1.409188
H      -0.583246   -2.704426    0.052053
H      -3.990680   -1.132397   -2.163035
H      -2.510832    0.910956   -1.404265
