16

C      -0.031378    1.565224   -0.004913
C       0.053935    0.060812   -0.071481
O      -1.022892   -0.588456   -0.674296
C       1.348497   -0.660448   -0.316879
O       2.554417    0.007361   -0.427861
C       0.712896   -0.719199    1.086028
O       1.362742    0.069146    2.051845
C       0.085980   -1.915749    1.573994
N      -0.405621   -2.876412    1.992886
H       0.870765    2.008916    0.416960
H      -0.174739    1.957126   -1.015832
H      -0.880757    1.877214    0.612321
H      -1.795640   -0.512046   -0.100926
H       1.291983   -1.549392   -0.936221
H       2.705729    0.461998    0.412677
H       1.969085   -0.499023    2.543677
