22

C      -1.057534    1.117038    0.634818
C      -0.961966   -0.393109    0.762092
O       0.359386   -0.715019    1.190425
C       0.639317   -2.090663    1.362155
C       2.021546   -2.385031    0.769620
C       2.092358   -2.110389   -0.733285
C       0.616872   -2.452899    2.868476
C      -0.695194   -2.293356    3.489394
N      -1.738812   -2.177007    3.972660
H      -0.323045    1.492304   -0.083733
H      -2.056616    1.404447    0.294255
H      -0.870026    1.595297    1.600139
H      -1.701728   -0.765133    1.482472
H      -1.165313   -0.876840   -0.206233
H      -0.115453   -2.698923    0.841750
H       2.757388   -1.764658    1.296578
H       2.280613   -3.430559    0.976740
H       1.401295   -2.754531   -1.288405
H       1.830014   -1.070425   -0.942595
H       3.099651   -2.293961   -1.117909
H       0.941528   -3.490067    3.008524
H       1.333995   -1.810249    3.390740
