14

C       0.022843    1.499931   -0.043572
C      -0.052565    0.026683    0.101399
C      -1.090278   -0.848122    0.228990
O      -2.405258   -0.542807    0.297251
C      -3.314163   -1.478814   -0.124519
N      -4.535561   -1.210046   -0.009439
N      -0.575717   -2.109268    0.336534
N       0.687305   -2.064555    0.276150
O       1.067045   -0.706653    0.134742
H       0.558350    1.776772   -0.957029
H      -0.987237    1.911665   -0.086523
H       0.549830    1.951853    0.802942
H      -2.846168   -2.381554   -0.523264
H      -5.097437   -1.980491   -0.365988
