15

C      -0.052037    1.409892    0.080007
N      -0.073859   -0.034731    0.006460
C      -0.009971   -0.819124   -1.094980
C      -0.073922   -2.131710   -0.672313
C      -0.179964   -2.015534    0.724346
O      -0.302097   -3.065791    1.589128
C       0.293701   -2.964906    2.816362
O       0.140967   -3.801734    3.649313
N      -0.189274   -0.756856    1.143376
H       0.797924    1.746372    0.679686
H       0.038717    1.810582   -0.930769
H      -0.974310    1.780584    0.535064
H       0.074193   -0.392666   -2.082246
H      -0.046474   -3.029248   -1.265598
H       0.904843   -2.054669    2.909805
