21

C      -0.073259    1.589941    0.258714
C      -0.054105    0.077816    0.008643
C       0.897635   -0.659508    0.957509
N      -1.403079   -0.485259    0.071341
C      -2.261834   -0.511373    1.123697
C      -3.413587   -1.152128    0.707614
C      -4.652746   -1.427844    1.503714
C      -3.138924   -1.479223   -0.639286
N      -1.928409   -1.077082   -1.019621
H       0.928755    2.006561    0.118828
H      -0.755947    2.088862   -0.433999
H      -0.391105    1.820671    1.280958
H       0.252834   -0.110272   -1.023024
H       0.608899   -0.512093    2.003483
H       0.897336   -1.732604    0.749378
H       1.917600   -0.282613    0.835627
H      -2.003003   -0.081244    2.078861
H      -5.535865   -0.955010    1.059034
H      -4.863438   -2.501338    1.570218
H      -4.557624   -1.048760    2.525311
H      -3.776710   -1.991652   -1.346012
