12

O       0.034676    1.362609    0.440897
C       0.000277    0.035716   -0.062133
C      -1.407497   -0.461557    0.050640
N      -1.648066   -1.709374    0.374737
O      -3.032482   -1.844546    0.349628
C      -3.575718   -0.662898    0.020971
C      -2.610130    0.265309   -0.185853
H       0.918925    1.711661    0.295273
H       0.306944    0.006311   -1.120150
H       0.662271   -0.642846    0.492807
H      -4.653699   -0.638795   -0.021280
H      -2.714519    1.303621   -0.448130
