20

C      -0.470202    1.470080    0.091556
C       0.000531    0.017452    0.096435
C       0.686869   -0.445660   -1.209727
C       1.598384   -1.640958   -0.821434
C       1.520675   -1.727376    0.735289
C       2.773089   -2.097768    1.381018
N       3.772999   -2.332956    1.913119
C       1.037451   -0.316059    1.178304
O       2.080350    0.634693    1.098230
H       0.377626    2.147837   -0.033674
H      -1.176576    1.644281   -0.726379
H      -0.974318    1.728362    1.028591
H      -0.862125   -0.635640    0.287238
H      -0.044712   -0.714589   -1.976100
H       1.292621    0.370928   -1.611619
H       1.274739   -2.583511   -1.268264
H       2.628218   -1.471394   -1.139680
H       0.758572   -2.456993    1.031827
H       0.601698   -0.343181    2.187147
H       2.778910    0.377705    1.711174
