17

O      -0.064337    1.296564   -0.600497
C       0.047833    0.109711    0.166268
C      -1.291161   -0.582778    0.264852
O      -1.707361   -1.348495   -0.872261
C      -1.518297   -2.043881    0.387597
C      -0.398567   -3.073618    0.353584
O      -0.765740   -4.194336   -0.422577
C      -2.736580   -2.490350    1.024310
C      -3.730153   -2.865380    1.586162
H      -0.354371    1.040835   -1.483289
H       0.809887   -0.563633   -0.245856
H       0.373388    0.420987    1.164710
H      -2.078585    0.056630    0.666404
H       0.521834   -2.607994   -0.020275
H      -0.208761   -3.443617    1.365619
H      -0.997539   -3.867736   -1.299644
H      -4.613178   -3.201412    2.071647
