15

C      -0.041672    1.463617   -0.002052
C       0.000582    0.010322   -0.036782
C       0.011459   -1.196471   -0.072337
C       0.063799   -2.605397   -0.106197
C       1.200675   -3.399679   -0.017642
N       2.541290   -3.068763    0.046600
N       0.724404   -4.660060   -0.095576
N      -0.638124   -4.669609   -0.221497
N      -1.024623   -3.439055   -0.233258
H       0.608540    1.904084   -0.766536
H      -1.059459    1.823923   -0.187589
H       0.274622    1.855276    0.971615
H       2.667012   -2.075886    0.200017
H       3.082132   -3.603387    0.714357
H       1.230680   -5.530449   -0.107888
