12

O       0.003372    1.397380    0.008661
C      -0.010889   -0.001472    0.002766
C      -1.455895   -0.474466    0.013427
O      -2.412049    0.252987    0.024694
C      -1.637099   -1.962666    0.007926
N      -0.669647   -2.837962   -0.004975
O      -1.269473   -4.032229   -0.005255
N      -2.676127   -3.824834    0.008339
N      -2.873147   -2.592745    0.015994
H       0.920150    1.687608    0.001745
H       0.475687   -0.440460   -0.884985
H       0.491119   -0.448037    0.878060
