18

C       0.016043    1.387509    0.102413
O      -0.035985   -0.019581    0.004431
C       0.575472   -0.559921   -1.086103
C       0.641899   -1.907761   -1.373813
C       0.424121   -3.400334   -1.211322
C       1.226518   -3.522629   -2.566579
N       1.331643   -2.055625   -2.543381
C       1.730920   -0.862098   -3.053138
C       1.268537    0.097506   -2.155404
H       1.051125    1.751499    0.163362
H      -0.475854    1.871749   -0.752658
H      -0.512656    1.656582    1.019076
H       0.911931   -3.874397   -0.354924
H      -0.610103   -3.751545   -1.267324
H       2.189469   -4.037076   -2.499348
H       0.658933   -3.912835   -3.416310
H       2.288562   -0.758217   -3.969226
H       1.416027    1.160840   -2.260517
