16

O       0.039509   -0.004339    0.173778
C       0.002275    1.189732   -0.005297
C      -1.190270    2.092140    0.029596
C      -0.766671    3.351040   -0.185841
N      -0.966712    4.405030    0.769516
C       0.287282    4.098537    1.564416
C       1.337475    3.494145    0.573018
C       1.194938    2.112456   -0.171242
C       0.651217    3.395544   -0.736192
H      -2.091172    1.818514    0.564322
H      -0.825239    5.312178    0.327515
H       0.681169    5.023230    1.995621
H       0.017243    3.415688    2.372913
H       2.363226    3.836858    0.666835
H       2.127685    1.677020   -0.514506
H       0.926988    3.833210   -1.687703
