21

C      -0.268133    1.586475   -0.024338
C       0.025733    0.080092   -0.020106
C       0.802613   -0.452801   -1.248675
C       2.245434   -0.726500   -0.757900
O       3.084071    0.419420   -0.848660
C       2.048614   -1.204830    0.696839
C       3.269614   -1.228266    1.607525
C       0.901356   -0.314455    1.185503
O       0.724830    0.052633    2.320111
H       0.638435    2.173717   -0.210975
H      -0.987657    1.840138   -0.808084
H      -0.674632    1.893784    0.942545
H      -0.928155   -0.447898    0.098867
H       0.359748   -1.385896   -1.612132
H       0.814345    0.251514   -2.084358
H       2.744931   -1.479116   -1.372874
H       2.733272    1.114681   -0.281228
H       1.610303   -2.214783    0.635658
H       3.813386   -0.282316    1.548891
H       2.959817   -1.379801    2.644578
H       3.959524   -2.028006    1.323909
