21

C       0.029099    1.579742    0.126845
C      -0.051356    0.057658   -0.018972
C       0.781280   -0.478467   -1.187155
C       0.701783   -2.007671   -1.337878
C       1.465765   -2.520727   -2.518517
C       2.574525   -3.328090   -2.541724
N       2.891601   -3.488648   -3.874796
C       1.974122   -2.781698   -4.590921
N       1.103265   -2.187706   -3.810194
H       1.060970    1.907202    0.296810
H      -0.330136    2.082443   -0.777970
H      -0.575270    1.935072    0.967647
H       0.280479   -0.417656    0.914307
H      -1.099072   -0.242642   -0.154265
H       0.448271   -0.018939   -2.125305
H       1.831522   -0.184308   -1.057702
H       1.074771   -2.491055   -0.426667
H      -0.352202   -2.298374   -1.438090
H       3.151095   -3.792858   -1.759164
H       3.652385   -4.032347   -4.245145
H       1.992321   -2.741329   -5.670090
