19

C       0.045866    1.490541   -0.079369
C      -0.038296   -0.023002   -0.044720
O       0.670480   -0.525545   -1.192305
C       0.736926   -1.853016   -1.302387
N       0.221843   -2.694450   -0.493262
C       0.584766   -4.047701   -0.946370
C       1.363689   -3.886025   -2.251870
N       0.554539   -3.243037   -3.307478
C       1.476156   -2.422881   -2.471055
H       1.086428    1.825176   -0.038105
H      -0.406385    1.885743   -0.993424
H      -0.486136    1.911872    0.778743
H       0.413182   -0.442649    0.860658
H      -1.072565   -0.380214   -0.086093
H       1.193285   -4.539101   -0.176873
H      -0.319546   -4.650034   -1.086460
H       2.148168   -4.580862   -2.530964
H       1.009756   -3.403686   -4.204820
H       2.317846   -1.911829   -2.922345
