20

C       0.007168    1.562174   -0.031030
C      -0.124574    0.056895    0.213135
C       0.994280   -0.506670    1.101023
C       0.925240   -2.011616    1.266389
C       1.533794   -2.699359    2.441701
N       0.087582   -2.698773    2.255165
C      -0.711482   -1.938475    3.202916
H       0.956314    1.801229   -0.523880
H      -0.801232    1.936484   -0.666710
H      -0.024179    2.121504    0.910799
H      -1.097252   -0.159858    0.671577
H      -0.119512   -0.473928   -0.747869
H       1.966618   -0.261178    0.651470
H       0.983003   -0.007538    2.076350
H       0.946038   -2.544502    0.314655
H       2.034350   -3.659246    2.338889
H       1.944298   -2.058398    3.222953
H      -0.229064   -1.029173    3.595619
H      -1.658324   -1.649629    2.734681
H      -0.942639   -2.583547    4.057091
