17

O      -0.070868    1.405497   -0.028449
C       0.013459   -0.005539    0.006103
C       0.621054   -0.582001    1.301868
C      -0.026429   -1.955612    1.458760
O       0.346081   -2.869101    2.146833
C      -1.249914   -1.977138    0.552384
C      -1.639440   -3.246053   -0.094624
O      -2.383426   -2.715443    0.993821
C      -1.409257   -0.590895   -0.039789
H       0.822203    1.762129   -0.069086
H       0.585692   -0.379283   -0.857639
H       1.711801   -0.636461    1.328800
H       0.291745    0.041538    2.144608
H      -2.128338   -3.206146   -1.067344
H      -1.069691   -4.146004    0.128967
H      -2.049438    0.015976    0.611443
H      -1.841232   -0.581055   -1.042106
