18

O       0.082717    1.435404    0.325523
C       0.043152    0.059319    0.044234
C      -1.404738   -0.501431   -0.044941
C      -2.102543   -0.109019   -1.356109
O      -2.060282    1.316837   -1.479852
C      -2.848255    1.879450   -2.421427
N      -2.735752    3.108677   -2.672689
C      -1.414024   -1.955555    0.070745
C      -1.394487   -3.155524    0.137376
H      -0.428264    1.887528   -0.356953
H       0.577888   -0.198239   -0.885332
H       0.559550   -0.444394    0.865925
H      -1.964460   -0.060672    0.790056
H      -1.580658   -0.568075   -2.205227
H      -3.142040   -0.457839   -1.356032
H      -3.548158    1.169746   -2.882440
H      -3.410682    3.387696   -3.381389
H      -1.383506   -4.214611    0.216520
