20

C      -0.027239    1.604552   -0.188835
C       0.005564    0.080616   -0.049440
C       0.780297   -0.627051   -1.193223
C       1.309629   -1.951805   -0.600745
C       1.506644   -1.649045    0.873041
N       2.176396   -0.382226    1.145950
C       0.699889   -0.419180    1.210217
C       0.074036   -0.352361    2.547892
O       0.689315   -0.471265    3.584679
H       0.987875    2.010307   -0.137106
H      -0.465211    1.900789   -1.147497
H      -0.620436    2.071364    0.604773
H      -1.025741   -0.300733   -0.021425
H       0.157928   -0.780636   -2.078563
H       1.622988    0.003227   -1.488609
H       0.572029   -2.756911   -0.699178
H       2.231579   -2.288943   -1.085108
H       1.598012   -2.451633    1.598834
H       2.506749   -0.389660    2.112064
H      -1.026562   -0.193942    2.548139
