19

O      -0.120116    0.081151    0.169836
C       0.007453    1.284431    0.067593
C       1.283006    1.970227   -0.086685
C       1.474073    3.295060   -0.184515
C       0.939684    4.642981    0.231912
C       2.374465    4.873015    0.843413
C       2.911269    3.703230   -0.065015
C       3.614143    2.414224    0.414681
C       2.645321    1.277723   -0.048246
H      -0.879932    1.956675    0.087118
H       0.763119    5.313895   -0.615061
H       0.071823    4.671399    0.893622
H       2.815002    5.861363    0.697876
H       2.404357    4.607814    1.902689
H       3.340329    4.107366   -0.989572
H       4.627647    2.294131    0.023328
H       3.681086    2.411598    1.508478
H       2.634391    0.421700    0.631567
H       2.926149    0.887125   -1.034728
