16

C       0.429807    1.104596   -0.121485
O       0.103424   -0.270770    0.107576
C       0.605942   -0.782518    1.251688
O       1.303071   -0.184785    2.029392
N       0.124764   -2.075817    1.442307
C       0.143385   -3.115041    0.441664
C       0.989372   -3.225700    1.690378
C       2.418248   -3.112995    1.589930
C       3.615453   -3.040361    1.518687
H       1.512181    1.239774   -0.188256
H      -0.047041    1.367131   -1.066059
H       0.046503    1.731792    0.687341
H      -0.762539   -3.708563    0.356153
H       0.666369   -2.916495   -0.488929
H       0.633205   -3.869982    2.490597
H       4.673133   -2.962526    1.461256
