19

C      -0.051060    1.540089    0.055309
C       1.422048    1.889673   -0.002564
C       2.200328    0.841685    0.313329
C       1.375403   -0.326787    0.601653
C       1.604731   -1.432563    1.312366
C       0.473241   -2.371301    1.649676
C      -0.824165   -2.001882    0.907626
O      -1.037989   -0.598149    0.832600
C      -0.011697   -0.000483    0.071501
H      -0.506909    1.909617    0.983816
H      -0.634044    1.946809   -0.776436
H       1.777906    2.888564   -0.226547
H       3.280484    0.859723    0.401561
H       2.582845   -1.635635    1.741879
H       0.733409   -3.411168    1.410043
H       0.306293   -2.348576    2.736416
H      -0.796644   -2.422341   -0.111596
H      -1.696036   -2.419420    1.418174
H      -0.079927   -0.357826   -0.972967
