17

C      -0.046734    1.485322    0.040664
C      -0.065309   -0.000152   -0.063417
N      -0.125096   -0.681542   -1.137493
C      -0.019739   -2.116122   -0.812576
C       0.000415   -2.205830    0.734711
C       1.314893   -2.435502    1.531322
C       1.268751   -0.924170    1.828885
O       1.970412   -0.116247    2.358607
N       0.024400   -0.771593    1.139192
H       0.830270    1.801964    0.615722
H      -0.022343    1.930883   -0.953668
H      -0.929253    1.838584    0.584068
H      -0.872666   -2.654962   -1.235082
H       0.882249   -2.524594   -1.285870
H      -0.864836   -2.736545    1.136722
H       1.262071   -3.090721    2.403370
H       2.181591   -2.711909    0.924856
