16

O      -0.025717    1.483107   -0.087359
C       0.006360    0.089022   -0.006207
C      -0.111183   -0.659252    1.361548
C      -1.549403   -0.122368    1.526262
C      -1.363867   -0.625832    0.070835
C      -2.371587   -0.827334   -1.034979
C      -3.578242   -1.520437   -0.587402
N      -4.534078   -2.058410   -0.225560
O      -0.644559   -1.807171    0.591804
H       0.877098    1.815650   -0.074283
H       0.709306   -0.383152   -0.701365
H       0.646054   -0.872389    2.114557
H      -2.205869   -0.738459    2.140569
H      -1.677998    0.949772    1.675740
H      -2.649701    0.152686   -1.439502
H      -1.905602   -1.397070   -1.846826
