20

C       0.544020    1.627930    0.033220
C      -0.100456    0.233144   -0.089513
C       0.425350   -0.490500   -1.341052
N      -0.077716   -1.832906   -1.573401
C       0.622116   -2.901275   -0.892386
C       0.688734   -2.944767    0.642403
O       1.036601   -3.983182    1.174333
C       0.349796   -1.782749    1.499781
C       0.027948   -0.513538    1.209909
H       1.621516    1.544922    0.211211
H       0.396479    2.202535   -0.886440
H       0.110305    2.198391    0.859949
H      -1.182677    0.395141   -0.236217
H       0.186834    0.137445   -2.210086
H       1.520546   -0.547639   -1.294680
H      -1.077325   -1.884463   -1.414372
H       0.204782   -3.865504   -1.200444
H       1.665796   -2.910697   -1.237491
H       0.383536   -2.066406    2.549325
H      -0.191525    0.116644    2.073064
