16

C       0.042589    1.489035    0.009778
O       1.220385    0.646265   -0.006666
C      -0.032102    0.033133    0.002567
C      -0.602225   -0.977239    1.037507
C      -1.786593   -1.099608    0.013993
C      -0.623015   -0.965943   -1.031693
C       0.202349   -2.211263   -0.680729
C       0.215913   -2.218477    0.656457
H      -0.113429    2.043563    0.934157
H      -0.131916    2.053618   -0.905160
H      -0.750243   -0.732085    2.087789
H      -2.328223   -2.046710    0.014258
H      -2.469510   -0.244500    0.025511
H      -0.792067   -0.709349   -2.076050
H       0.677134   -2.879725   -1.383849
H       0.704766   -2.894449    1.342550
