16

N       0.155977    1.460308   -0.087173
C       0.007911    0.048014   -0.108817
C       0.285828   -0.870289   -1.360424
C      -0.382555   -1.920672   -0.461176
O       0.558241   -2.029770    0.662064
C       0.843492   -0.709531    0.909914
O       1.561532   -0.312931    1.778798
C      -1.332615   -0.807250    0.043925
O      -1.995826   -0.925619    1.257300
H      -0.720460    1.944538   -0.236347
H       0.550392    1.758078    0.800048
H      -0.311302   -0.591426   -2.230567
H       1.326450   -1.045346   -1.635380
H      -0.691956   -2.914469   -0.770567
H      -2.067871   -0.507836   -0.707036
H      -1.415180   -1.378828    1.881907
