19

C      -0.219310    1.594879   -0.034838
C      -0.003243    0.073831   -0.012320
C       0.819894   -0.444272   -1.180301
C       1.848168   -1.216904   -0.829273
C       1.957157   -1.350686    0.660257
C       2.944523   -0.412512    1.414190
O       2.743617    0.916295    0.933525
C       1.832974    0.413654    1.916437
C       0.777391   -0.469379    1.213340
H       0.736137    2.124236   -0.022075
H      -0.763798    1.893824   -0.936807
H      -0.809730    1.920239    0.828509
H      -0.995891   -0.399082   -0.042357
H       0.560138   -0.190491   -2.204095
H       2.545842   -1.676577   -1.520825
H       1.995167   -2.377423    1.035710
H       3.912898   -0.641203    1.844871
H       1.737047    0.986315    2.832361
H       0.145243   -0.983308    1.940130
