19

C      -0.113979    1.537941    0.016648
C       0.039110    0.043745    0.026323
C      -0.811122   -0.859471    0.885486
C       0.680285   -0.908252    1.044095
C       1.266694   -1.775070   -0.069009
C       0.638205   -0.778048   -1.142582
N      -0.309834   -1.205898   -2.157542
C       1.718773   -0.040955   -1.809253
N       2.586848    0.526564   -2.319628
H       0.814095    2.032959   -0.285827
H      -0.900565    1.844616   -0.681818
H      -0.387286    1.905061    1.010739
H      -1.357727   -0.333385    1.661707
H      -1.347466   -1.718094    0.485777
H       1.177789   -0.662213    1.973454
H       2.356628   -1.795258   -0.104294
H       0.885372   -2.799998   -0.130717
H       0.133167   -1.818663   -2.835392
H      -1.068386   -1.722156   -1.725580
