19

C       0.095735    1.283827    0.219804
O       0.231374   -0.130585    0.034580
C       0.612557   -0.517499   -1.199736
O       0.829010    0.251544   -2.102935
C       0.721906   -2.025622   -1.279164
C       1.184273   -2.512421   -2.654588
C       1.275460   -4.016733   -2.711788
C       2.344319   -4.713212   -3.436098
O       2.372436   -4.614390   -2.010760
H       1.046218    1.790604    0.034412
H      -0.656411    1.692390   -0.459979
H      -0.212997    1.419329    1.256393
H       1.411886   -2.364938   -0.498569
H      -0.255178   -2.447999   -1.012951
H       0.491152   -2.157274   -3.425527
H       2.161109   -2.077938   -2.887165
H       0.331689   -4.549933   -2.574952
H       2.171620   -5.712710   -3.832992
H       3.101926   -4.131331   -3.959786
