15

O      -0.096867    0.008151    0.064268
C      -0.068928    1.212917    0.009778
N      -1.162540    2.057364   -0.082305
C      -0.774975    3.402490   -0.029166
C       0.553561    3.524880    0.053555
C       1.166125    2.145368    0.052027
C       2.071652    1.850436    1.271215
C       2.796447    0.583761    1.178073
N       3.414739   -0.389525    1.110953
H      -2.109605    1.716613   -0.068667
H      -1.531172    4.173289   -0.072959
H       1.108615    4.450060    0.083695
H       1.748048    1.966579   -0.861213
H       2.811116    2.653042    1.367737
H       1.476253    1.857259    2.190231
