19

C      -0.241662    1.290316    0.083017
O       0.050648   -0.097194    0.093123
C       0.643203   -0.579630   -1.087714
C       1.295979   -1.925708   -0.879975
C       0.374746   -3.097682   -0.647589
C       0.917162   -2.845902   -2.030275
C       0.011839   -2.095648   -2.990043
C      -0.378287   -0.821807   -2.234766
O      -1.334523   -0.127450   -2.462504
H       0.666259    1.884123   -0.110188
H      -0.998115    1.542650   -0.666024
H      -0.616591    1.537527    1.079203
H       1.390928    0.144026   -1.463593
H       2.289404   -1.951804   -0.449480
H       0.779390   -3.937875   -0.095273
H      -0.674261   -2.900639   -0.447814
H       1.646898   -3.537036   -2.434873
H       0.551070   -1.802290   -3.900946
H      -0.883449   -2.639313   -3.306438
