21

C       0.073304    1.525729   -0.073658
C       0.028533   -0.001493    0.079132
C       0.759466   -0.446611    1.353010
C      -1.428341   -0.517211   -0.017196
C      -1.568221   -2.066070    0.023276
N      -1.947368   -2.313566    1.404469
C      -2.508553   -1.181204    1.984596
O      -3.074022   -1.118520    3.053401
N      -2.289645   -0.141414    1.095852
H       1.106784    1.884098   -0.102421
H      -0.422398    1.854681   -0.993375
H      -0.415857    2.027180    0.770148
H       0.547758   -0.436115   -0.787446
H       0.278740   -0.036067    2.246873
H       0.778668   -1.534188    1.460337
H       1.794277   -0.090229    1.340311
H      -1.845567   -0.138631   -0.958322
H      -2.337746   -2.400631   -0.685943
H      -0.627467   -2.561696   -0.237823
H      -2.328243   -3.201872    1.687828
H      -2.339915    0.799991    1.447737
