18

N      -0.152190    1.089530    0.712529
C      -0.082794   -0.004590    0.090690
C      -1.243765   -0.781787   -0.490700
C      -0.652759   -2.185399   -0.671194
C       0.833627   -1.888747   -0.893106
C       1.868222   -2.999354   -0.643735
O       2.196114   -3.063387   -2.046238
C       1.392020   -1.903489   -2.337309
O       1.083749   -0.682277   -0.166913
H       0.778842    1.409426    0.985122
H      -2.116805   -0.731668    0.159731
H      -1.522437   -0.336673   -1.452958
H      -0.771868   -2.771363    0.246739
H      -1.090889   -2.755262   -1.492560
H       2.714387   -2.672633   -0.027020
H       1.478745   -3.951432   -0.264442
H       0.676628   -2.087396   -3.147633
H       1.999907   -1.020753   -2.570979
