18

O      -0.081259    1.395608   -0.428848
C       0.003559    0.028739   -0.059662
C      -1.404852   -0.549812   -0.088348
C      -1.430477   -2.037753    0.309211
C      -2.768094   -2.617040    0.282271
C      -3.879275   -3.078260    0.245509
C      -5.226555   -3.632042    0.225806
O      -5.388091   -4.465022   -0.917600
H       0.806051    1.765860   -0.420466
H       0.651045   -0.533725   -0.753107
H       0.433323   -0.086923    0.949678
H      -2.040933    0.026708    0.591190
H      -1.821700   -0.428000   -1.093171
H      -0.779446   -2.610087   -0.365707
H      -1.000433   -2.158260    1.313038
H      -5.398080   -4.198571    1.156051
H      -5.955823   -2.805193    0.219977
H      -6.288722   -4.804495   -0.898057
