17

O      -0.000419   -0.049793   -0.263842
C      -0.012210    1.118248    0.015900
C      -1.276880    1.972975    0.220337
C      -0.823291    3.219504    0.975800
C      -0.738888    3.110554    2.508653
O       0.016783    1.927037    2.802197
C       0.731982    3.130120    2.487441
C       0.769083    3.241045    0.952836
C       1.234207    2.007038    0.183967
H      -1.665055    2.228520   -0.773599
H      -2.043523    1.383475    0.728039
H      -1.282037    4.150213    0.640129
H      -1.446467    3.440460    3.260713
H       1.451906    3.479042    3.218925
H       1.192615    4.183725    0.604517
H       2.030922    1.438703    0.668992
H       1.586368    2.272696   -0.820672
