19

O       0.729460    0.898383   -0.448071
C       0.228765   -0.214238    0.245812
C      -0.190365   -0.094224    1.732439
C      -1.349360   -1.083390    1.429284
C      -1.191350   -0.757600   -0.079193
C      -2.223680    0.227474   -0.712031
C      -2.681525   -0.929430   -1.615303
O      -3.641419   -1.108610   -2.305497
C      -1.489465   -1.799561   -1.191528
H       0.200281    1.665984   -0.206218
H       0.972639   -1.006729    0.108940
H       0.541037   -0.361645    2.497695
H      -0.571801    0.910343    1.948390
H      -1.072859   -2.118319    1.650687
H      -2.320367   -0.877096    1.885291
H      -2.986131    0.678749   -0.071072
H      -1.740184    1.013855   -1.304985
H      -0.714138   -1.832410   -1.966449
H      -1.724022   -2.823803   -0.887335
