19

C       0.353390    1.590262    0.043845
C       0.098891    0.089305    0.054074
C       0.885583   -0.796041   -0.969822
C       1.425670   -1.674231    0.199613
N       2.847797   -1.521512    0.489456
C       2.920870   -0.645934    1.415134
N       4.060372   -0.105178    1.945387
O       1.774224   -0.118613    1.942230
C       0.695792   -0.746067    1.221780
H       1.418215    1.812549    0.157101
H       0.014920    2.027698   -0.901411
H      -0.179427    2.092781    0.858134
H      -0.977921   -0.100705   -0.009781
H       0.264205   -1.315969   -1.703260
H       1.687523   -0.271812   -1.495364
H       1.137180   -2.727754    0.165701
H       4.891331   -0.646350    1.764126
H       3.973885    0.237153    2.889948
H      -0.005089   -1.151908    1.954246
