17

O      -0.072224    1.366304   -0.048756
C       0.021768   -0.032033   -0.008811
C      -0.488760   -0.737511    1.246322
C      -1.313446   -0.725286    0.000239
C      -2.656698   -0.064914   -0.281842
O      -3.019925   -1.149755   -1.166865
C      -1.791681   -1.860521   -0.893874
C       1.115939   -0.612608   -0.741705
C       2.038948   -1.086543   -1.350862
H       0.723001    1.728888    0.357862
H      -0.007171   -1.663206    1.543909
H      -0.795221   -0.085125    2.058065
H      -3.335597    0.008381    0.577829
H      -2.611597    0.900461   -0.797038
H      -1.198678   -2.037636   -1.799255
H      -1.974573   -2.816051   -0.384632
H       2.851293   -1.502933   -1.893732
