23

C       0.363430   -1.495423    1.096507
C      -0.037617   -0.499873    0.000408
C       0.672975   -0.676295   -1.319164
C       2.118724   -1.121448   -1.458094
C       1.032956   -1.910995   -2.138536
O       0.772762   -3.239409   -1.831260
C       0.618552   -1.231382   -3.442670
C       0.291673    0.066551   -2.624208
C      -1.156602    0.526815   -2.738111
H       0.255706   -2.526482    0.748690
H       1.402015   -1.351858    1.411058
H      -0.267233   -1.363036    1.980885
H      -1.118618   -0.579091   -0.170048
H       0.132391    0.524825    0.361230
H       2.832388   -0.530168   -2.030713
H       2.535370   -1.605623   -0.580972
H       1.539168   -3.766082   -2.083916
H       1.379139   -1.158438   -4.228479
H      -0.288389   -1.673897   -3.863663
H       0.962348    0.905969   -2.846681
H      -1.853223   -0.292998   -2.530111
H      -1.379101    1.340664   -2.039542
H      -1.364567    0.889654   -3.750622
