15

O      -0.122439    1.338730    0.262043
C      -0.008140    0.020928   -0.012729
C       0.118140   -0.726047   -1.160651
C       0.304612   -0.758696   -2.646179
C       0.194953   -2.306024   -2.888333
O       0.354288   -2.989159   -1.618352
C       0.182974   -2.041639   -0.668993
N       0.099208   -2.177095    0.632886
N      -0.007091   -0.854449    1.027026
H      -0.110200    1.828673   -0.565619
H      -0.457751   -0.228626   -3.226359
H       1.282357   -0.375666   -2.964568
H      -0.792542   -2.563477   -3.287433
H       0.960112   -2.689327   -3.566263
H      -0.176948   -0.637211    1.993072
