17

N      -0.103992   -1.074356    0.563153
C      -0.057260    0.030462    0.227901
C       0.025267    1.436791   -0.179977
C       1.435475    1.965678   -0.144383
C       2.081235    2.581332   -1.138234
C       3.473820    3.023232   -0.738738
C       3.551286    2.624401    0.732326
N       2.566511    3.316632    1.590967
C       2.280432    1.940422    1.090366
H      -0.397905    1.536717   -1.184725
H      -0.616182    2.017674    0.496855
H       1.663256    2.785425   -2.118317
H       4.243661    2.516476   -1.334919
H       3.617620    4.101381   -0.876354
H       4.500868    2.328856    1.164236
H       2.885964    3.248000    2.556292
H       2.218493    1.120045    1.797265
