18

O       0.029858    1.459125   -0.218496
C       0.027185    0.083769   -0.131133
C      -0.146306   -0.757854   -1.351659
C      -1.096140   -0.946195   -0.178893
N      -0.516783   -1.698268    0.941803
C       0.023589   -3.047639    0.675478
C       1.522553   -2.850513    0.624708
C       1.860888   -1.575911    0.826095
C       0.636069   -0.739483    1.031624
H      -0.339513    1.814925    0.598064
H      -0.587376   -0.215593   -2.182361
H       0.580675   -1.514903   -1.631205
H      -2.170069   -0.830489   -0.274683
H      -0.266936   -3.752826    1.467058
H      -0.373941   -3.451303   -0.267499
H       2.213760   -3.668769    0.453264
H       2.868725   -1.179411    0.847108
H       0.646191   -0.168905    1.971947
