24

C      -0.047161    1.603698    0.060019
C      -0.007747    0.073805    0.018121
C       0.699920   -0.477401   -1.224507
C       0.742938   -2.008371   -1.272603
C       1.450780   -2.558043   -2.515753
C       1.488955   -4.088428   -2.555293
C       2.205055   -4.619025   -3.813637
C       2.249620   -6.078557   -3.866193
N       2.275324   -7.233680   -3.890516
H       0.963857    2.026194    0.059369
H      -0.574406    2.010366   -0.810210
H      -0.558176    1.966103    0.957390
H       0.494785   -0.305130    0.917943
H      -1.031783   -0.320854    0.055543
H       0.197673   -0.098924   -2.125929
H       1.725156   -0.083115   -1.263066
H       1.245745   -2.387059   -0.372066
H      -0.281823   -2.402871   -1.234844
H       0.948265   -2.182400   -3.417968
H       2.476874   -2.166582   -2.554602
H       1.998527   -4.475124   -1.665398
H       0.469940   -4.490926   -2.528679
H       1.702639   -4.254838   -4.717699
H       3.232930   -4.239144   -3.853466
