23

C       0.009100    1.513410    0.040025
C      -0.001962    0.014986   -0.015080
C      -0.027214   -0.704063   -1.140449
C      -0.036137   -2.213257   -1.070069
C      -0.012944   -2.705067    0.392195
C      -0.021325   -4.219988    0.492492
C      -1.061001   -1.889704    1.213570
C       0.016375   -0.767169    1.288080
C       1.075100   -1.904121    1.174843
H       0.899426    1.884719    0.564663
H      -0.005612    1.954875   -0.960440
H      -0.857087    1.896537    0.595673
H      -0.041720   -0.229630   -2.118563
H      -0.924437   -2.615043   -1.580666
H       0.827549   -2.626887   -1.612447
H       0.851015   -4.655562   -0.009912
H      -0.004732   -4.547989    1.537390
H      -0.916934   -4.643695    0.021887
H      -2.016062   -1.645501    0.740231
H      -1.237591   -2.351084    2.190256
H       0.036690   -0.120924    2.168023
H       1.280730   -2.368080    2.144601
H       2.015586   -1.672714    0.667138
