10

C      -0.018919   -1.226374    0.020682
C       0.003001   -0.028370   -0.013826
C       0.021927    1.440496   -0.034391
C       1.386406    1.984779   -0.016912
C       2.496729    2.435335    0.015782
C      -0.738542    1.961369   -1.192437
N      -1.345148    2.376982   -2.081785
H      -0.035468   -2.288575    0.043737
H      -0.502211    1.801969    0.864013
H       3.482323    2.831746    0.039030
