15

O      -0.168092    0.019176   -0.656697
C      -0.099804    1.159623   -0.257491
C      -1.278011    1.927206    0.330796
N      -1.536590    3.182311   -0.349015
C      -0.810328    4.337432   -0.162886
O      -1.272141    5.432738   -0.435298
C       0.578012    4.182910    0.320196
C       1.393611    3.121400    0.199598
N       1.106545    1.842990   -0.254281
H      -2.148028    1.280007    0.228049
H      -1.090885    2.082746    1.403682
H      -2.473037    3.346255   -0.687593
H       1.013926    5.106352    0.680044
H       2.440360    3.238451    0.465250
H       1.886284    1.261705   -0.529342
