21

O      -0.396578    1.229444    1.093222
C      -0.030427    0.203266    0.153395
C       1.091947   -0.699932    0.714249
C       0.546440   -1.998005    1.330458
C      -0.189463   -2.806621    0.226738
C      -1.425010   -1.919254    0.535764
C      -0.856434   -1.780699    1.975466
C      -1.307988   -0.606224   -0.258304
O      -2.459372    0.197524   -0.126367
H      -0.333507    0.866701    1.981907
H       0.328458    0.764136   -0.713703
H       1.800723   -0.953826   -0.082780
H       1.656896   -0.112054    1.447830
H       1.311985   -2.509605    1.918719
H       0.224607   -2.773567   -0.787095
H      -0.350039   -3.848591    0.515181
H      -2.424116   -2.339381    0.405752
H      -1.136711   -2.635379    2.596885
H      -1.068123   -0.869944    2.544785
H      -1.214395   -0.873355   -1.321152
H      -2.203651    0.910934    0.476985
