16

C      -0.255347    1.407008   -0.010147
N       0.065124   -0.015553    0.029193
C       1.217735   -0.463710   -0.848698
C       2.222011   -0.131646    0.291974
C       0.973236   -0.463289    1.158315
C       0.802950   -1.966810    0.912525
O       0.597142   -2.877184    1.658370
C       0.993345   -1.967139   -0.650355
O       0.972572   -2.877832   -1.423420
H       0.606438    2.085298    0.094699
H      -0.749101    1.626625   -0.961403
H      -0.963035    1.626993    0.794648
H       1.289932   -0.086047   -1.866671
H       3.115821   -0.754856    0.400991
H       2.499865    0.922123    0.325600
H       0.798944   -0.085198    2.163690
