13

O       0.211045    1.385367    0.008910
C       0.016486   -0.000878    0.001656
C      -1.495375   -0.279368    0.014494
O      -2.331577    0.579826    0.026381
N      -1.753508   -1.653405    0.010241
C      -2.978063   -2.318831    0.018169
N      -4.107096   -1.746156    0.031722
H       1.157646    1.553989   -0.003938
H       0.446377   -0.484587   -0.893112
H       0.463750   -0.496239    0.881459
H      -0.945693   -2.256814    0.000009
H      -2.815784   -3.405035    0.011095
H      -4.845330   -2.448382    0.035014
