17

O       0.102387    1.434090   -0.122614
C       0.018755    0.044936    0.001773
C       0.294151   -0.598463    1.409594
C      -1.114413   -1.251376    1.388852
C      -2.295722   -0.427195    1.954224
N      -2.017436    1.010573    1.701722
C      -2.574848    0.162456    0.612970
C      -1.404290   -0.623959   -0.014367
H      -0.467165    1.778658    0.582650
H       0.665258   -0.376728   -0.773454
H       1.112546   -1.322961    1.408359
H       0.463283    0.130798    2.204224
H      -1.196583   -2.325334    1.551444
H      -2.970050   -0.702585    2.756415
H      -2.789749    1.542710    2.098785
H      -3.510512    0.440321    0.143315
H      -1.677119   -1.236757   -0.873480
