21

C      -0.119995    1.486538   -0.361393
C      -0.134283   -0.016344   -0.158272
O       0.665013   -0.605575   -1.203268
C       0.779393   -1.948983   -1.169106
O       0.244274   -2.644789   -0.342767
C       1.690457   -2.441074   -2.279749
C       1.517938   -3.913763   -2.568432
C       0.538179   -4.371463   -3.617689
C       2.023069   -4.490119   -3.865096
H       0.899494    1.878583   -0.305898
H      -0.537828    1.752986   -1.336337
H      -0.718905    1.972237    0.414756
H       0.282296   -0.303744    0.812356
H      -1.147014   -0.428207   -0.212146
H       1.519453   -1.833007   -3.174038
H       2.720477   -2.223119   -1.963302
H       1.599438   -4.543228   -1.688895
H      -0.029781   -5.275751   -3.431434
H      -0.006683   -3.612316   -4.170023
H       2.472106   -3.811935   -4.583860
H       2.473001   -5.476622   -3.849227
