19

C       0.022019    1.670943   -0.044275
C      -0.040603    0.138487   -0.011046
C       0.814506   -0.432282    1.138086
N      -1.406336   -0.416252    0.047610
C      -2.132671   -0.247693    1.304954
C      -3.500463   -0.755774    1.168761
N      -4.585492   -1.135121    1.056810
C       0.551377   -0.454996   -1.298853
O       1.163593    0.167212   -2.124811
H       1.050428    2.011400   -0.186306
H      -0.568988    2.065273   -0.876343
H      -0.355900    2.101742    0.887869
H       0.500689   -0.027160    2.104462
H       0.741007   -1.523232    1.177911
H       1.862781   -0.157457    0.994450
H      -1.960680   -0.017051   -0.703807
H      -1.638156   -0.823600    2.094016
H      -2.199208    0.793029    1.665305
H       0.360305   -1.546063   -1.398863
