20

C      -0.126421    1.507488   -0.038907
N       0.104272    0.074626    0.101312
C       1.399114   -0.525810   -0.157392
C       2.572915    0.318193    0.301519
C       3.283778   -0.377860    1.445734
C       1.981966    0.339935    1.705163
O       1.898204    1.446967    2.537314
C       0.797318   -0.504759    1.240905
C       0.127300   -1.580752    2.046831
H       0.701772    2.141134    0.300641
H      -0.326570    1.724956   -1.093324
H      -1.018205    1.775245    0.536175
H       1.453217   -1.366720   -0.841634
H       3.028633    1.143329   -0.231889
H       3.348305   -1.462667    1.475535
H       4.163899    0.138659    1.820059
H       2.064646    1.161095    3.441745
H      -0.510297   -1.145038    2.825702
H      -0.506294   -2.200053    1.407414
H       0.864740   -2.222974    2.540936
