14

O      -0.928755    1.562451    0.174217
C       0.099361    1.077948   -0.221857
C       1.403163    1.877829   -0.339588
O       2.410797    1.320537   -0.694692
C       1.307701    3.339043    0.060634
C       1.317220    3.526778    1.619277
N       2.562008    4.257356    1.883873
C       3.092951    4.474364    0.756849
O       2.480058    4.041962   -0.375860
H       0.204397    0.017505   -0.530837
H       0.425616    3.789448   -0.400074
H       0.452079    4.099430    1.963805
H       1.316851    2.575303    2.160418
H       4.024615    5.000067    0.584694
