22

C       0.076434    1.563671   -0.103910
C       0.163432    0.039627   -0.008510
C       0.640950   -0.475934    1.370456
C      -0.280737   -0.048465    2.433479
N      -1.017389    0.279132    3.262235
C       0.795214   -1.992428    1.385788
C       2.076704   -2.633069    0.906332
C       1.688429   -2.721015    2.363113
C       2.490797   -2.014877    3.435361
H       1.051848    2.029351    0.075470
H      -0.260518    1.870076   -1.098367
H      -0.627698    1.967952    0.629553
H      -0.812229   -0.408085   -0.230128
H       0.864515   -0.349417   -0.754882
H       1.610593   -0.011586    1.587697
H      -0.125140   -2.506778    1.122143
H       2.015051   -3.517362    0.281844
H       2.901290   -1.971803    0.654291
H       1.297868   -3.684292    2.680713
H       2.939530   -1.085536    3.071715
H       1.868301   -1.767719    4.301543
H       3.310401   -2.653325    3.781735
