18

C      -0.032619    1.528459   -0.007165
C       0.014732    0.029639   -0.003050
C       0.467637   -0.999521   -1.052689
C       1.239784   -1.793294   -0.002050
C       0.649739   -0.845881    1.088276
O      -0.291180   -1.474812    1.972181
C      -1.349062   -2.031228    1.330566
N      -1.707440   -1.867302    0.125864
C      -0.990029   -0.884098   -0.640879
H       0.963255    1.966485    0.130413
H      -0.433518    1.905979   -0.953470
H      -0.675936    1.905663    0.796722
H       0.774629   -0.823082   -2.076871
H       0.994770   -2.853652    0.106939
H       2.323138   -1.683722   -0.092791
H       1.378311   -0.357795    1.734507
H      -1.907628   -2.680114    2.001900
H      -1.612710   -0.425687   -1.403393
