18

N      -0.110754    1.281968   -0.164997
C      -0.055516    0.025099   -0.077793
O      -1.197386   -0.697333   -0.038980
C      -1.047685   -2.091841    0.060634
C      -0.503589   -2.872790   -1.167956
C      -1.750536   -3.814423   -1.106462
C      -2.279613   -3.027477    0.116100
O      -1.835251   -3.586717    1.370319
C      -0.705694   -2.687269    1.441589
H       0.829475    1.671670   -0.181543
H       0.855061   -0.587117   -0.027501
H      -0.484817   -2.249488   -2.064390
H       0.475158   -3.342100   -1.041609
H      -2.389941   -3.744936   -1.989348
H      -1.551600   -4.864580   -0.887513
H      -3.318941   -2.694429    0.140765
H       0.248830   -3.218623    1.539882
H      -0.814603   -1.964384    2.259669
