16

O       0.066686    1.387243   -0.128649
C       0.040623    0.003301   -0.022109
C      -0.389701   -0.770207   -1.234714
C      -1.243153   -0.845927    0.017893
N      -0.979130   -1.896862    0.966464
C      -1.880993   -2.837388    1.393580
O      -1.640028   -3.701523    2.206241
C       0.333186   -1.774452    1.446722
C       0.948310   -0.700833    0.930082
H      -0.035878    1.753907    0.757436
H      -0.831350   -0.179606   -2.030027
H       0.190342   -1.629655   -1.551367
H      -2.240423   -0.424412    0.016880
H      -2.863140   -2.714111    0.899565
H       0.693274   -2.533028    2.124467
H       1.958413   -0.382020    1.142596
