17

C      -0.092666    1.504813    0.004796
C       0.026278    0.055661   -0.059876
C       0.130936   -1.141600   -0.118444
C       0.239936   -2.591845   -0.182389
C      -1.017546   -3.299432    0.396701
C       0.455465   -3.093015   -1.609681
O       0.151439   -2.506979   -2.618488
C       1.103768   -4.480480   -1.758209
O       1.500954   -5.140643   -0.834646
H       0.765188    1.952513    0.518401
H      -0.144116    1.940669   -0.998848
H      -0.997195    1.806088    0.544424
H       1.101115   -2.938834    0.402586
H      -0.893880   -4.384889    0.374214
H      -1.162358   -2.986656    1.432822
H      -1.906608   -3.023352   -0.175827
H       1.179555   -4.799387   -2.819131
