24

C      -0.058947    1.572018    0.155144
C      -0.008452    0.049796   -0.010169
C       0.898956   -0.448382   -1.152765
C       2.374387   -0.097320   -0.910198
C       0.692917   -1.962308   -1.344898
C       1.390278   -2.595800   -2.571605
C       1.141445   -4.115162   -2.647528
C       0.954288   -1.947523   -3.814291
N       0.599906   -1.440878   -4.791323
H       0.910395    1.988434    0.444764
H      -0.366208    2.059755   -0.776648
H      -0.778821    1.853777    0.929832
H       0.316469   -0.412067    0.932907
H      -1.026585   -0.317573   -0.191513
H       0.575001    0.052543   -2.075891
H       3.011685   -0.401745   -1.745995
H       2.513225    0.979567   -0.785010
H       2.749780   -0.589433   -0.004207
H       1.054263   -2.496190   -0.456005
H      -0.380604   -2.173724   -1.420458
H       2.471125   -2.429497   -2.492676
H       1.516524   -4.594987   -1.739104
H       0.072540   -4.329755   -2.734334
H       1.649460   -4.557103   -3.508135
