14

N       0.110308    1.155113   -0.381316
C       0.039656   -0.051321   -0.038724
C      -1.200411   -0.926984   -0.119583
C      -0.699259   -2.328755    0.169184
O      -0.254816   -3.053616   -1.028347
C       1.074559   -2.949207   -0.684731
O       2.016605   -3.369933   -1.266444
C       0.770471   -2.144642    0.602761
O       1.086184   -0.767718    0.512171
H       1.046809    1.530602   -0.225549
H      -1.922132   -0.603371    0.636473
H      -1.678775   -0.844179   -1.096566
H      -1.352638   -2.960822    0.767909
H       1.139414   -2.553622    1.542829
