21

C       0.009041    1.607057   -0.062517
C      -0.029615    0.077851   -0.161746
C      -1.420089   -0.556124    0.027202
C      -2.422808   -0.108936   -1.030061
C      -1.318018   -2.094858    0.258558
C      -1.480184   -1.782720    1.773294
N      -1.963509   -0.432795    1.419068
C      -2.423749   -2.597600    2.541421
N      -3.157268   -3.256450    3.144528
H       1.038161    1.970167   -0.138047
H      -0.568290    2.082759   -0.860146
H      -0.390263    1.964742    0.893743
H       0.359523   -0.233739   -1.139961
H       0.654484   -0.347798    0.584338
H      -2.060012   -0.343710   -2.037299
H      -3.381095   -0.610960   -0.876200
H      -2.602930    0.969194   -0.978055
H      -2.165390   -2.648006   -0.147356
H      -0.385983   -2.580361   -0.032320
H      -0.515228   -1.804422    2.297116
H      -1.586367    0.321164    1.984385
