16

C      -0.001718   -1.188310   -0.016225
C       0.032784    0.012147   -0.011990
C       0.019410    1.467873    0.029322
C      -0.706251    1.989781    1.283663
O      -0.666313    3.402998    1.322761
C       0.671467    3.879703    1.304501
C       1.395799    3.370362    0.064708
O       1.362658    1.950262    0.013885
H      -0.021470   -2.250064   -0.031898
H      -0.514104    1.858245   -0.854797
H      -1.758978    1.696774    1.267106
H      -0.225510    1.555743    2.174112
H       0.618209    4.972424    1.308845
H       1.206865    3.546384    2.208221
H       0.924939    3.794883   -0.836996
H       2.451727    3.655787    0.077502
