19

O       0.007139    0.010728   -0.416814
C      -0.003032    1.164385   -0.061299
C      -1.291971    1.908591    0.303192
C      -1.032719    3.346721    0.716858
C       0.073444    4.131185    0.043017
C       1.030146    3.297859   -0.796684
C       1.239756    2.027520    0.071400
C       1.275773    2.587681    1.519213
C       0.226364    3.688790    1.485497
H      -1.964741    1.855364   -0.561710
H      -1.788764    1.344892    1.102524
H      -1.917960    3.914846    0.984896
H      -0.097511    5.169333   -0.216648
H       0.646421    3.058975   -1.795015
H       1.982932    3.823045   -0.929230
H       2.118839    1.442480   -0.201251
H       1.077442    1.812888    2.268435
H       2.265501    3.006066    1.735042
H       0.169761    4.396103    2.304585
