17

O      -0.635461    0.816213   -0.701455
C       0.096902    1.029372    0.230106
C       1.290078    1.967120    0.165129
C       1.440081    2.678602   -1.192657
C       2.499066    3.745408   -1.154929
C       2.952993    4.299292   -0.032139
C       2.433417    3.952743    1.339600
C       1.270992    2.970339    1.321325
O       0.400614    2.978794    2.159754
H      -0.051041    0.532260    1.209732
H       2.189381    1.349560    0.331691
H       1.668030    1.934876   -1.963237
H       0.471694    3.103578   -1.487070
H       2.897881    4.070898   -2.112090
H       3.724401    5.063601   -0.074474
H       3.233930    3.507466    1.951880
H       2.107014    4.843445    1.888145
