17

O      -0.054712    1.475300   -0.177105
C      -0.125348    0.092934    0.011287
C      -0.485220   -0.636926    1.255932
C      -1.687081   -0.128689    2.074470
C      -2.328464    1.142764    1.572423
C      -2.580551   -0.146513    0.846559
C      -1.423898   -0.658587   -0.041262
C      -1.601569   -1.812056   -0.922225
O      -2.661007   -2.364585   -1.120881
H       0.691264    1.803084    0.338063
H       0.642886   -0.452276   -0.546682
H       0.112342   -1.476277    1.592347
H      -1.902899   -0.541813    3.050301
H      -3.169237    1.460076    2.183173
H      -1.754654    1.942668    1.129639
H      -3.556711   -0.598180    0.743547
H      -0.662392   -2.171043   -1.403923
