17

C      -0.007933    1.443842   -0.176186
C      -0.013888   -0.031715    0.103450
N      -0.042234   -0.492687    1.283947
O       0.015421   -0.725300   -1.072058
C       0.015043   -2.145583   -1.013897
C       0.050395   -2.649619   -2.459884
C       0.053120   -4.104663   -2.525353
C       0.054493   -5.305919   -2.547635
H       0.887083    1.718136   -0.743252
H      -0.874240    1.716977   -0.786719
H      -0.031469    1.992934    0.763781
H      -0.042147   -1.510976    1.314854
H       0.891064   -2.508234   -0.461517
H      -0.886158   -2.509528   -0.504538
H      -0.815924   -2.244963   -2.996081
H       0.940985   -2.243602   -2.953609
H       0.055670   -6.367273   -2.582978
