18

C      -0.056782    1.539550    0.024489
C       0.081138    0.041258   -0.012478
C      -0.029207   -0.644260   -1.171929
C       0.036513   -2.079793   -1.404682
C       0.753581   -2.942314   -0.673888
C       1.575420   -2.456436    0.491312
N       0.759669   -1.789043    1.495362
C       0.135374   -0.582443    1.354406
O      -0.383511   -0.024096    2.311618
H       0.841289    2.006363    0.446120
H      -0.223534    1.949494   -0.974304
H      -0.884061    1.820340    0.682186
H      -0.236738   -0.051126   -2.061939
H      -0.512274   -2.444565   -2.269717
H       0.758861   -4.000299   -0.915875
H       2.088506   -3.285076    0.983128
H       2.350468   -1.764651    0.128600
H       0.723401   -2.161898    2.432275
