21

C       0.026231    1.450025   -0.140936
C       1.343504    0.737025    0.014628
C       0.025930   -0.046983    0.022662
C       0.420000   -0.720731   -1.280511
C       0.228764   -2.167343   -1.615772
C      -0.469794   -1.096635   -2.429363
C       1.735918    0.062361   -1.288570
C       2.480261    0.659003   -2.447398
C       3.095530   -0.461307   -1.633347
H      -0.302753    2.011838    0.728143
H      -0.244852    1.895828   -1.094721
H       2.017296    0.933632    0.840122
H      -0.460823   -0.540925    0.855238
H       1.052081   -2.704974   -2.076121
H      -0.370467   -2.771536   -0.941546
H      -1.541914   -0.975818   -2.311126
H      -0.109021   -0.911498   -3.436626
H       2.136397    0.424824   -3.450360
H       2.886425    1.659561   -2.338173
H       3.918422   -0.219217   -0.967802
H       3.171270   -1.443809   -2.089169
