20

C       0.701478    0.201593   -1.095201
O      -0.050528    0.018064    0.089168
C       0.610902   -0.709332    1.094369
C       1.733745    0.029423    1.795728
C       1.261356    1.318935    2.459766
O       2.391846    1.930040    3.066134
C      -0.303460   -1.599230    1.883198
C       0.686360   -2.205028    0.906667
H       1.046873   -0.756570   -1.508195
H       0.038473    0.682732   -1.818409
H       1.576633    0.847886   -0.940341
H       2.177160   -0.621962    2.556388
H       2.538692    0.272710    1.091921
H       0.803431    1.974114    1.704740
H       0.483355    1.086104    3.204011
H       2.107174    2.759505    3.460181
H      -0.121999   -1.714461    2.946297
H      -1.347564   -1.599062    1.593247
H       0.281216   -2.607474   -0.014999
H       1.545857   -2.739246    1.297031
