17

C      -0.050877    1.568543   -0.177125
C      -0.133730    0.050926   -0.231510
C      -0.167108   -0.750133    1.043903
C      -1.402121   -0.648430    0.180512
C       1.352253    2.056964   -0.018965
N       1.862131    2.524631    1.117257
N       3.110202    2.786100    0.749226
N       3.384948    2.513767   -0.516751
N       2.273494    2.047054   -1.021491
H      -0.467999    1.995166   -1.096229
H      -0.644395    1.945618    0.661156
H       0.414153   -0.386794   -1.060706
H       0.365151   -1.694205    1.074527
H      -0.158469   -0.205617    1.982547
H      -2.223743   -0.038431    0.542095
H      -1.714095   -1.521669   -0.381447
H       3.797424    3.173238    1.378372
