23

C      -1.931504   -0.078968    3.040746
C      -1.358351   -1.396178    2.505613
C      -2.384106   -2.170846    1.707178
N      -2.589453   -1.768994    0.306738
C      -2.076850   -3.123438    0.600530
C      -0.690203   -3.437723    0.136800
C      -0.162106   -4.831222    0.236787
N      -0.415572   -4.232329   -1.065730
C      -1.513980   -4.762063   -1.859187
H      -1.182450    0.477034    3.612511
H      -2.268526    0.554769    2.214593
H      -2.789047   -0.256636    3.699784
H      -0.487891   -1.184780    1.877930
H      -1.008201   -2.019713    3.338376
H      -3.280839   -2.415628    2.279319
H      -3.572932   -1.804745    0.054182
H      -2.782202   -3.946065    0.502944
H       0.008218   -2.613311    0.253010
H       0.877823   -5.020244    0.491555
H      -0.858137   -5.594014    0.588901
H      -2.341670   -5.195422   -1.275279
H      -1.919694   -3.966803   -2.492478
H      -1.122867   -5.549843   -2.511191
