23

C       0.324294    1.444154   -0.294551
C      -0.026193   -0.005974    0.006896
C       0.649687   -1.028804   -0.962476
C       1.620285   -1.475412    0.161354
C       0.743930   -0.713321    1.202520
C       1.489447    0.114308    2.245286
C      -0.342596   -1.568961    1.806466
C      -1.551268   -1.325504    1.301057
C      -1.533582   -0.249526    0.241588
H       1.400844    1.580854   -0.444947
H      -0.177340    1.778103   -1.210723
H       0.012421    2.111991    0.516274
H      -0.031841   -1.822841   -1.278417
H       1.111642   -0.597489   -1.854909
H       1.739080   -2.551639    0.314042
H       2.615620   -1.030782    0.061998
H       2.224675    0.779314    1.780317
H       0.803149    0.727804    2.839133
H       2.031251   -0.539454    2.939454
H      -0.127971   -2.294211    2.586486
H      -2.464715   -1.823250    1.610490
H      -2.054373    0.656207    0.586348
H      -2.041439   -0.558020   -0.682227
