17

C      -0.064648    1.483133    0.020947
C       1.282890    0.776037    0.002246
C      -0.002863   -0.003371   -0.041483
O      -0.401109   -0.733443    1.113043
C      -0.663816   -2.049978    0.685102
C      -1.689509   -2.242220   -0.423474
O      -1.895636   -1.004590   -1.100689
C      -0.440461   -0.845051   -1.207512
C      -0.210323   -2.299316   -0.724067
H      -0.388410    1.914000    0.961209
H      -0.383697    2.026507   -0.861966
H       1.894472    0.839183   -0.892107
H       1.836442    0.737685    0.933543
H      -0.557186   -2.794311    1.464464
H      -2.481246   -2.982167   -0.448720
H      -0.125907   -0.524721   -2.200321
H       0.464949   -3.051603   -1.107031
