18

O      -0.079711    1.388623    0.137372
C      -0.064615   -0.022915    0.271344
C      -1.325670   -0.553226   -0.419730
C      -1.437634   -2.004450   -0.352637
C      -1.508504   -3.206220   -0.283128
C      -1.598807   -4.636193   -0.212859
C      -1.506342   -5.347030    1.128781
C      -2.819695   -5.299270    0.406244
H       0.708198    1.740423    0.561146
H       0.824174   -0.468114   -0.200159
H      -0.069748   -0.332343    1.327266
H      -2.198716   -0.078020    0.044774
H      -1.313651   -0.217154   -1.464051
H      -1.156140   -5.165068   -1.052336
H      -0.962827   -6.284738    1.157772
H      -1.384541   -4.724525    2.007069
H      -3.591213   -4.644287    0.792768
H      -3.186437   -6.203881   -0.065676
