11

N      -0.050246    1.354706   -0.053280
C      -0.011433    0.004492   -0.021084
N      -1.167263   -0.659263   -0.010541
C      -1.035036   -1.974387   -0.002557
F      -2.164611   -2.651073    0.006057
N       0.059750   -2.713924    0.000897
N       1.218060   -2.038818   -0.005904
C       1.206046   -0.724086   -0.017738
H       0.784509    1.900142    0.065050
H      -0.943446    1.809210    0.040989
H       2.171132   -0.226661   -0.024739
