20

C       0.437144    1.516609    0.271940
N       0.423217    0.060482    0.254266
C       0.456726   -0.537026   -0.842238
C       0.466509   -1.987731   -1.270024
C       0.531725   -1.403026   -2.698599
C      -0.633977   -1.655135   -3.632183
C      -0.587413   -0.786051   -4.893329
O      -1.653425   -1.065178   -5.785504
O       0.508596   -0.042172   -2.140168
H       1.297240    1.858726    0.858019
H       0.483189    1.977855   -0.721550
H      -0.461081    1.877157    0.785468
H       1.335990   -2.559077   -0.941207
H      -0.444171   -2.541832   -1.032561
H       1.489573   -1.563073   -3.205612
H      -0.633325   -2.712260   -3.925346
H      -1.570902   -1.469587   -3.089602
H      -0.560878    0.275569   -4.609020
H       0.330980   -0.994539   -5.453907
H      -2.469973   -0.767219   -5.372449
