20

C       0.354470    1.490901   -0.418724
C      -0.124465    0.094120   -0.021429
N       0.647964   -0.401116    1.115474
C       0.056848   -0.857310    2.115378
C       0.487806   -1.434702    3.446641
C      -1.027058   -1.568285    3.702628
C      -1.652833   -0.689973    4.767215
O      -3.056372   -0.632355    4.623391
O      -1.305640   -1.011357    2.369786
H       1.427492    1.482241   -0.629922
H      -0.175102    1.840962   -1.310462
H       0.175934    2.208162    0.388494
H      -1.204112    0.103891    0.177914
H       0.042417   -0.595510   -0.858836
H       1.045756   -2.369723    3.380005
H       1.020164   -0.738703    4.098980
H      -1.416123   -2.588716    3.757965
H      -1.448361   -1.108349    5.759210
H      -1.195431    0.312200    4.723691
H      -3.227697   -0.329205    3.723817
