13

O      -0.315774    0.000828   -0.320839
C      -0.262507    1.165733   -0.020330
C       0.984060    1.947580   -0.152144
N       1.965051    2.543095   -0.288122
N      -1.279673    1.898503    0.554279
C      -1.783595    3.187258    0.140819
C      -2.666812    1.954704    0.109353
C      -3.051208    1.380767   -1.149003
C      -3.392071    0.901635   -2.196252
H      -1.922747    3.917715    0.932054
H      -1.451431    3.579856   -0.815949
H      -3.385125    1.836473    0.917022
H      -3.685375    0.470031   -3.121899
