21

C      -0.098886    1.595146   -0.088453
C       0.027798    0.066799   -0.024589
C       0.717727   -0.474209   -1.279927
O      -0.073579   -0.127587   -2.408972
C       0.771491   -0.443162    1.229025
O       2.114876    0.017416    1.282812
C       0.008991   -0.130841    2.536755
C       0.622058   -0.728582    3.715521
C       1.124985   -1.231719    4.683886
H       0.886005    2.075241   -0.040241
H      -0.556209    1.885114   -1.036193
H      -0.715291    1.996465    0.721413
H      -0.981876   -0.366233   -0.005667
H       1.729568   -0.050070   -1.349050
H       0.823861   -1.567807   -1.196313
H       0.418062   -0.358968   -3.201816
H       0.862124   -1.533161    1.152584
H       2.105478    0.950453    1.521254
H      -0.055982    0.957625    2.669419
H      -1.025209   -0.484547    2.436860
H       1.572556   -1.673660    5.539096
