21

C      -0.197968    1.545869    0.022545
C       0.023702    0.023202    0.006833
C       0.752498   -0.467186   -1.218843
C       2.018850   -0.888829   -1.205272
C       2.715109   -1.427194   -2.425253
O       1.823598   -1.724461   -3.484894
C       0.912237   -0.658468   -3.707993
C      -0.034959   -0.530866   -2.516955
O      -0.970694   -1.609768   -2.482675
H       0.757452    2.080040    0.013082
H      -0.776298    1.880179   -0.844667
H      -0.747575    1.847366    0.919588
H       0.580279   -0.269985    0.903937
H      -0.948162   -0.483786    0.054729
H       2.604108   -0.862473   -0.287794
H       3.488256   -0.712949   -2.767014
H       3.233794   -2.363889   -2.190132
H       1.451027    0.288266   -3.878588
H       0.348311   -0.912379   -4.609356
H      -0.646916    0.370486   -2.638458
H      -0.439062   -2.415257   -2.461744
