14

O      -0.077614   -0.085766   -0.129752
C      -0.083511    1.084657    0.095681
C      -1.282013    2.002598    0.078407
C      -1.170288    3.078421    1.180312
N       0.140464    3.739092    1.145361
C       1.112820    3.043131    0.754134
O       1.117777    1.720742    0.363894
C      -2.254929    4.051410    1.071075
C      -3.174238    4.815386    0.959659
H      -1.307872    2.502122   -0.897684
H      -2.186923    1.402107    0.173335
H      -1.252738    2.587092    2.162112
H       2.123170    3.440105    0.714240
H      -3.978383    5.503967    0.872569
