21

C      -0.071388   -1.252911   -0.004651
C      -0.068836   -0.050862    0.002750
C      -0.030577    1.406373    0.010786
C       1.403571    1.973643   -0.000716
C       1.429317    3.504771    0.007873
C       2.849188    4.078297   -0.003472
C       2.863961    5.620503    0.005296
C       4.210384    6.179152   -0.005354
C       5.331265    6.613336   -0.014701
H      -0.086378   -2.314386   -0.011269
H      -0.581500    1.790809   -0.857913
H      -0.563422    1.780640    0.895062
H       1.946566    1.585372    0.868884
H       1.928480    1.595520   -0.885756
H       0.875113    3.884293   -0.862141
H       0.893238    3.874142    0.893473
H       3.407542    3.712369    0.866090
H       3.389422    3.722513   -0.888551
H       2.306347    5.995215   -0.863385
H       2.324465    5.985080    0.889587
H       6.316575    7.008413   -0.023166
