19

C       0.228303    1.556870   -0.270075
C       0.098639    0.065088   -0.046634
C       1.319265   -0.817502    0.068488
C       0.425454   -0.611343    1.266397
C       0.914229    0.164916    2.482256
C       1.668714   -0.656052    3.420804
C       2.290408   -1.336710    4.202074
C       3.028547   -2.178301    5.105517
O       3.548943   -1.800703    6.130945
H       1.116577    1.972105    0.214992
H       0.314813    1.776738   -1.339504
H      -0.644815    2.099131    0.109903
H      -0.744558   -0.376953   -0.571632
H       1.325267   -1.785642   -0.419614
H       2.286770   -0.323641    0.080818
H      -0.211586   -1.449917    1.532648
H       1.544630    1.008095    2.176330
H       0.062919    0.609871    3.016130
H       3.091419   -3.238883    4.785468
