20

C      -0.114773    1.457696   -0.122097
N       0.028545    0.016094    0.033806
C       1.351086   -0.543220   -0.147700
C       0.740603   -0.470123    1.221981
C       1.280216    0.406345    2.346958
C       1.594330   -0.602812    3.477233
C       0.503939   -1.680045    3.348739
C       0.215269   -1.748026    1.848996
O      -0.303169   -2.656826    1.253183
H       0.771454    2.038847    0.178068
H      -0.320785    1.670316   -1.175478
H      -0.970844    1.804123    0.465057
H       1.388809   -1.503659   -0.655007
H       2.181398    0.134804   -0.346975
H       2.153392    0.998634    2.066015
H       0.503145    1.106544    2.679860
H       2.578879   -1.052062    3.306088
H       1.618006   -0.129767    4.461560
H       0.765274   -2.660242    3.752185
H      -0.422118   -1.358429    3.845294
