17

C       0.189083    1.469206    0.245925
C       0.250877   -0.034165   -0.010578
C       0.614564   -0.393681   -1.437380
O       0.773242    0.420185   -2.316059
C       0.813176   -1.886112   -1.699183
C       1.381754   -2.303997   -3.057674
O       2.604682   -2.798903   -2.401908
C       2.150453   -2.445668   -1.167341
O       2.688743   -2.557489   -0.113834
H       1.156441    1.938227    0.049073
H      -0.544989    1.947702   -0.407011
H      -0.086358    1.669395    1.284615
H       0.978082   -0.534119    0.644515
H      -0.710843   -0.517099    0.215586
H      -0.041180   -2.460799   -1.332993
H       0.870930   -3.117123   -3.574057
H       1.608543   -1.475159   -3.727460
