14

O      -0.119451    1.316492   -0.007996
N       0.030752   -0.073501   -0.014773
C      -1.094064   -0.648672   -0.076905
C      -2.559207   -0.273493    0.032540
N      -2.910749   -1.739697    0.224344
C      -2.485113   -2.447125   -1.001198
C      -2.550342   -1.845856   -2.310843
N      -2.629549   -1.375957   -3.364407
C      -1.439937   -2.088495    0.008591
H       0.792321    1.624640    0.041233
H      -2.787896    0.283081    0.943742
H      -3.041742    0.200787   -0.824801
H      -2.799273   -3.487376   -0.988049
H      -0.920443   -2.856110    0.570673
