15

C       0.070221    1.497124    0.020682
C      -0.089159    0.018137    0.028572
C      -1.166168   -0.810517    0.068671
C      -0.594066   -2.113220    0.040922
C      -1.303244   -3.430157    0.099057
O      -2.467648   -3.337157   -0.708752
N       0.714797   -2.068924   -0.016486
O       1.041319   -0.713930   -0.016724
H       0.582554    1.831121   -0.887533
H      -0.907063    1.980958    0.066205
H       0.665775    1.832117    0.876226
H      -2.209931   -0.549057    0.097084
H      -0.616829   -4.217424   -0.241330
H      -1.567299   -3.649926    1.146203
H      -2.962888   -4.155418   -0.607950
