18

C      -0.393427    1.447787   -0.080508
C       0.033815   -0.002798   -0.102120
N      -0.390494   -0.748599   -1.039115
C      -0.018610   -2.140228   -1.168815
C       1.328114   -2.541787   -0.586067
O       1.298909   -2.617126    0.845265
C       1.297014   -1.485754    1.576163
N       1.650734   -1.441812    2.795574
N       0.895651   -0.295015    0.966057
H       0.477430    2.113214   -0.093893
H      -1.011669    1.648004   -0.953500
H      -0.965819    1.671433    0.827178
H      -0.794979   -2.774675   -0.718140
H      -0.012190   -2.382929   -2.239679
H       1.593906   -3.551892   -0.907549
H       2.119565   -1.855315   -0.909447
H       1.996335   -2.353478    3.087657
H       1.032582    0.465758    1.615922
