11

O      -0.005670   -0.079501   -0.003369
C       0.008168    1.124465    0.007429
C       1.242534    1.933450    0.001155
C       1.337841    3.303325    0.012563
O       2.660393    3.633382    0.000685
C       3.297353    2.435655   -0.016806
N       2.522675    1.404456   -0.017571
C       0.376969    4.334428    0.032334
N      -0.435086    5.159964    0.048537
H      -0.922995    1.728156    0.023029
H       4.375757    2.468476   -0.028386
