17

O      -0.389330    0.601043    0.832690
C       0.025836    1.214335   -0.115195
C       1.450833    1.732539   -0.238334
N       1.481598    2.884102   -1.121645
C       1.439939    4.253971   -0.646128
C       2.244919    4.470550    0.648931
C       3.504052    3.880624   -0.062840
C       2.660567    3.690098   -1.339278
H      -0.609372    1.441093   -0.999961
H       1.852547    1.881534    0.772456
H       2.040349    0.930126   -0.705466
H       0.658162    4.902244   -1.026727
H       2.365143    5.530856    0.879801
H       1.880275    3.962700    1.546822
H       4.290634    4.626388   -0.193245
H       3.950005    2.976487    0.362028
H       3.008425    3.821183   -2.358589
