15

O      -0.123044    1.334882   -0.314043
C       0.000614    0.018266   -0.055307
N       0.338849   -0.849576   -0.997395
N       0.354109   -2.040534   -0.346154
C       0.025843   -1.934923    0.966478
C       0.010569   -3.125464    1.875142
C       1.425572   -3.659204    2.067363
O       1.791469   -4.746639    1.706749
C      -0.206964   -0.593004    1.200928
H       0.075564    1.459909   -1.250717
H       0.585973   -2.875024   -0.857605
H      -0.385659   -2.818833    2.849098
H      -0.612368   -3.935827    1.483655
H       2.121504   -2.938725    2.550919
H      -0.493143   -0.125446    2.127860
