18

C      -0.037468    1.341710    0.049898
O       0.027067   -0.086645   -0.037582
C       0.653365   -0.567320   -1.136468
O       1.128788    0.129285   -1.989820
C       0.655203   -2.103632   -1.112498
C       1.416935   -2.596304    0.130853
C      -0.795483   -2.617888   -1.123184
O       1.330743   -2.490442   -2.297539
H       0.966776    1.772413    0.074062
H      -0.574820    1.756734   -0.806547
H      -0.568797    1.559399    0.976549
H       0.951970   -2.239236    1.052077
H       1.420834   -3.692294    0.149192
H       2.453825   -2.250847    0.097937
H      -1.304777   -2.287597   -2.032628
H      -0.797107   -3.713931   -1.107719
H      -1.352244   -2.261521   -0.254064
H       1.347673   -3.453011   -2.312691
