9

N       0.009116    1.400209    0.171034
C      -0.063139    0.020672    0.048902
C      -1.110761   -0.848681    0.017736
O      -0.611321   -2.095915   -0.040302
N       0.781413   -1.979045   -0.036187
N       1.078129   -0.749017    0.012324
H       0.920827    1.751512   -0.089979
H      -0.723960    1.900436   -0.311299
H      -2.181484   -0.744536    0.028908
