15

F      -0.118524    0.060918   -0.119813
C      -0.014182    1.382080    0.055992
F       1.295300    1.684109    0.117628
F      -0.514977    1.969861   -1.044799
C      -0.723727    1.846580    1.288744
C      -0.290855    3.045387    2.086006
C      -0.347771    1.692340    2.752562
C      -1.805169    1.296501    3.003581
N      -2.099715    1.428176    1.539969
H       0.708828    3.410523    1.879335
H      -1.022247    3.812813    2.328723
H       0.527272    1.218662    3.176068
H      -1.938623    0.263384    3.336619
H      -2.372385    1.962980    3.663583
H      -2.789417    2.138704    1.309274
