19

C      -0.472916    1.603557   -0.018832
C      -0.081614    0.121139    0.059650
C       0.719877   -0.420567   -1.140146
C       0.887787   -1.963937   -1.276198
C       0.360713   -1.923147   -2.741534
C      -0.072389   -0.480418   -2.494327
O      -0.820681    0.282840   -3.029653
C       2.024613    0.316821   -1.375874
O       3.068029   -0.216245   -1.663058
H       0.391597    2.268361    0.064470
H      -0.982782    1.822351   -0.960246
H      -1.150634    1.852418    0.803238
H       0.489881   -0.073219    0.976233
H      -0.993953   -0.481717    0.139049
H       1.913142   -2.311382   -1.158560
H       0.224566   -2.508225   -0.601538
H       1.166926   -1.970514   -3.481039
H      -0.431640   -2.613721   -3.038770
H       1.954357    1.420550   -1.298581
