9

N       0.020009    1.352176    0.009686
C       1.285704    1.837056   -0.000257
C       2.118372    0.738217   -0.014566
C       1.241282   -0.368316   -0.011948
N      -0.034919    0.007356    0.002827
H      -0.840050    1.873220    0.021063
H       1.487681    2.896401    0.003568
H       3.196022    0.735836   -0.025289
H       1.487507   -1.419963   -0.020188
