18

C      -0.012220    1.489366   -0.274486
C       0.016419   -0.003194    0.108705
C       0.697345   -0.276028    1.476556
C       2.169346    0.067035    1.488185
C       3.120520   -0.732527    2.297167
N       3.146601   -0.815877    0.824626
C      -1.344260   -0.550927    0.119298
N      -2.417345   -0.979995    0.143120
H       1.005403    1.874161   -0.372495
H      -0.524863    1.635048   -1.228149
H      -0.535759    2.074697    0.487109
H       0.572928   -0.549062   -0.664206
H       0.172369    0.296284    2.251299
H       0.570623   -1.335199    1.729236
H       2.399976    1.121459    1.351636
H       3.989087   -0.258215    2.744447
H       2.725669   -1.574975    2.859557
H       2.688190   -1.675851    0.528924
