21

C       0.169390    1.539469    0.118772
C      -0.027027    0.038188    0.090928
O       0.886581   -0.652454   -0.829774
C       1.142388   -1.715965    0.168264
C       0.404827   -2.984738   -0.233320
C       2.572014   -1.950189    0.699071
C       2.395331   -1.766912    2.244020
C       1.250172   -0.755071    2.331529
C       0.554245   -0.804207    1.201919
H       1.199985    1.785369    0.386491
H      -0.050621    1.967558   -0.864145
H      -0.506559    1.997291    0.848915
H      -1.065503   -0.209366   -0.172155
H       0.827862   -3.379555   -1.163235
H       0.503133   -3.754484    0.539709
H      -0.659436   -2.794462   -0.397688
H       2.999209   -2.919021    0.422763
H       3.224001   -1.161226    0.312401
H       2.163343   -2.719234    2.740269
H       3.304116   -1.385185    2.720607
H       1.145062   -0.046478    3.144795
