18

C       0.024038    1.440956    0.023996
N       0.022358   -0.000854    0.011253
C      -0.028543   -0.834116   -1.101961
N      -0.018991   -2.090737   -0.862220
C       0.045424   -2.193657    0.573565
C      -0.670264   -3.320656    1.293647
C       0.821249   -3.321868    1.226517
C       0.072553   -0.813439    1.148028
N       0.128128   -0.499801    2.381771
H       0.935045    1.831791    0.492944
H      -0.020869    1.810103   -1.002611
H      -0.841543    1.833314    0.571209
H      -0.072636   -0.394371   -2.092989
H      -1.140496   -3.047660    2.231739
H      -1.215953   -4.012352    0.663139
H       1.306913   -4.014311    0.549464
H       1.374268   -3.049649    2.118545
H       0.135606    0.509478    2.526606
