21

C       0.656461    0.803507   -1.215607
C       0.068374    0.148989    0.022508
O      -1.049315   -0.625060   -0.366310
C      -1.675311   -1.276988    0.708136
C      -2.914212   -2.001504    0.168590
O      -3.393034   -2.798286    1.237628
C      -4.425831   -3.690985    0.873307
C      -3.926609   -1.063301   -0.331941
C      -4.772821   -0.304566   -0.722847
H       1.523545    1.414595   -0.947836
H       0.974793    0.045049   -1.936407
H      -0.086293    1.444598   -1.698510
H       0.819077   -0.490325    0.517529
H      -0.238408    0.912241    0.757162
H      -1.015039   -2.028666    1.168286
H      -1.979686   -0.566742    1.492181
H      -2.588821   -2.643336   -0.667406
H      -4.681531   -4.260717    1.769383
H      -5.317390   -3.158774    0.516600
H      -4.095857   -4.388335    0.087736
H      -5.513145    0.370399   -1.075525
