20

C      -0.050554    1.536845    0.004775
C       0.067274    0.015687    0.041736
C       0.802098   -0.600756   -1.168212
C       1.338399   -1.936868   -0.664792
O       1.805490   -2.839545   -1.319487
C       1.231175   -1.934556    0.836999
C       0.754020   -3.202399    1.475116
N       2.146366   -2.783236    1.604442
C       0.847595   -0.531972    1.264264
H       0.940049    2.004985   -0.030886
H      -0.610794    1.872749   -0.873997
H      -0.565950    1.915028    0.893954
H      -0.942848   -0.414400    0.073069
H       0.195231   -0.720895   -2.068931
H       1.670388    0.014727   -1.446312
H       0.160945   -3.130198    2.383177
H       0.519562   -4.036492    0.819354
H       2.708144   -3.309398    0.932936
H       1.753476    0.065493    1.431470
H       0.261767   -0.503229    2.186368
