17

C      -0.018315    1.458923   -0.061758
C       0.014043   -0.032626   -0.070339
N       0.050174   -0.767730   -1.119011
C       0.086487   -2.161870   -0.660630
C       1.328264   -2.868839   -1.226472
O       1.311959   -2.855457   -2.634252
C       0.066248   -2.107952    0.870820
O       0.103933   -2.998018    1.683094
N       0.005994   -0.741650    1.132900
H       0.840473    1.865048    0.483987
H       0.002911    1.824579   -1.088245
H      -0.925499    1.825044    0.431486
H      -0.801893   -2.692657   -1.023875
H       2.231172   -2.383159   -0.821886
H       1.333630   -3.912862   -0.900956
H       1.140848   -1.940587   -2.891301
H      -0.004839   -0.348992    2.060733
