18

C      -0.206910   -1.223781    0.495048
C      -0.119203   -0.041788    0.288136
C      -0.036156    1.368484   -0.002511
C       0.738940    2.222634    0.950324
N       1.290752    1.917362   -0.373306
C      -1.222552    1.921749   -0.768602
C      -1.151500    3.361265   -1.325859
O      -1.432306    2.901245   -2.663431
C      -1.358588    1.521128   -2.255990
H      -0.280210   -2.265552    0.688094
H       0.439101    3.257778    1.092122
H       1.166135    1.743234    1.825611
H       1.993755    1.186593   -0.301959
H      -2.132980    1.730232   -0.195821
H      -1.915254    4.058570   -0.962703
H      -0.160824    3.824362   -1.256888
H      -0.474345    1.017737   -2.667497
H      -2.257338    0.959182   -2.533742
