16

C      -0.412547    0.889032    0.526443
C       0.302321   -0.398951    0.120695
N       0.736859   -0.397589   -1.286193
C       2.041241   -0.090718   -1.578333
O       2.551793   -0.022997   -2.681022
C      -0.279863   -0.708179   -2.252981
N       0.126059   -0.689230   -3.538785
O      -1.406383   -0.964811   -1.877085
H       0.236701    1.760773    0.396166
H      -1.312777    1.025446   -0.076019
H      -0.706625    0.836717    1.579280
H       1.193784   -0.557952    0.734088
H      -0.358626   -1.255607    0.255499
H       2.626890    0.098895   -0.661817
H       1.084832   -0.459767   -3.768469
H      -0.568467   -0.898528   -4.234233
