20

C      -0.119697    1.450761    0.161485
C       0.052854   -0.071814   -0.026082
C       0.787939   -0.401803   -1.325845
C       0.776799   -0.646477    1.192449
O       1.937412   -1.002344    1.143341
C      -0.007998   -0.734454    2.460532
C       0.321005   -1.887747    3.399270
C       0.741062   -0.507729    3.766964
H       0.856514    1.946134    0.188537
H      -0.689836    1.872710   -0.671658
H      -0.647027    1.694322    1.088564
H      -0.950635   -0.520149   -0.045205
H       1.803523    0.001817   -1.305366
H       0.869772   -1.482299   -1.472312
H       0.259437    0.023952   -2.184444
H      -1.041651   -0.410546    2.417495
H      -0.506494   -2.345758    3.928699
H       1.090683   -2.565700    3.048801
H       1.791944   -0.262921    3.664098
H       0.211512    0.012252    4.556990
