16

O       0.427031    0.157703    0.623195
C       0.307961    1.292394    0.233852
N       1.285800    2.016873   -0.425331
C       1.888548    3.279291   -0.094368
C       1.834010    3.719200    1.369089
C       2.368937    2.520355    2.185361
C       3.177296    1.669586    1.194568
O       4.089138    0.934901    1.464086
C       2.715549    2.007996   -0.204945
H      -0.639779    1.861684    0.290521
H       1.902721    4.028123   -0.881092
H       2.486780    4.589413    1.492094
H       0.828077    4.030811    1.665197
H       3.011992    2.816538    3.015604
H       1.569209    1.901215    2.604459
H       3.350765    1.757029   -1.047413
