14

C      -0.062122    1.548483    0.024340
C      -0.042729    0.017280   -0.014708
C       0.748293   -0.643818   -1.199267
N       1.699995   -1.140147   -0.205154
C       1.084109   -0.615809    0.896347
O       1.327160   -0.606687    2.067247
C      -1.362060   -0.555203    0.203537
N      -2.412556   -1.008149    0.371055
H       0.941975    1.939287   -0.162808
H      -0.744571    1.951688   -0.728372
H      -0.386753    1.891831    1.009371
H       0.206572   -1.426090   -1.736344
H       1.167185    0.078915   -1.905811
H       2.558549   -1.662491   -0.296959
