18

C      -0.095163    1.565706   -0.000760
C      -0.015033    0.051223    0.010165
C       1.237897   -0.647531   -0.601861
O       2.048834   -0.138200    0.534732
C       0.794478   -0.658431    1.138764
C       0.925083   -1.891344    0.237488
C       0.130758   -3.133526    0.027441
C       1.611591   -3.193948    0.404280
H       0.874434    2.000994    0.248858
H      -0.400386    1.931976   -0.987042
H      -0.835983    1.921268    0.723691
H      -0.967902   -0.428465   -0.235579
H       1.665445   -0.567318   -1.602520
H       0.690943   -0.591273    2.222886
H      -0.596120   -3.421513    0.780517
H      -0.146409   -3.410599   -0.984892
H       2.315351   -3.511471   -0.358343
H       1.865739   -3.522425    1.406878
