14

C       0.076984    1.434352    0.050873
N      -0.082354   -0.007899    0.094511
C      -1.272511   -0.598843   -0.102818
O      -2.341079   -0.084823   -0.333655
N      -1.185853   -2.039361   -0.012235
C      -2.177061   -2.944157   -0.155380
N      -1.679259   -4.146931    0.001642
N      -0.346799   -3.966958    0.247305
N      -0.039742   -2.718891    0.241933
H       0.777821    1.724330   -0.738072
H      -0.898288    1.874237   -0.157779
H       0.444445    1.813987    1.009278
H       0.709730   -0.607148    0.276773
H      -3.198240   -2.675840   -0.364523
