14

N       0.023527    1.402605    0.145369
C      -0.051551    0.021720    0.043611
C      -1.184752   -0.723421    0.013040
N      -1.181808   -2.112124   -0.019295
C      -0.037547   -2.673248   -0.018615
O       0.136340   -3.996910   -0.036702
O       1.160708   -2.063650   -0.003604
C       1.229987   -0.673165    0.010876
N       2.345904   -0.071579   -0.012933
H       0.928158    1.760863   -0.131466
H      -0.752440    1.911843   -0.250181
H      -2.165334   -0.259593    0.019078
H      -0.750882   -4.381088   -0.043458
H       3.128190   -0.723234   -0.044481
