22

C      -0.072626    1.638529    0.185346
C      -0.189054    0.113347    0.191548
C      -1.622926   -0.317102   -0.100282
C       0.976272   -0.643159   -0.488976
N       1.950788   -0.226199    0.646533
C       2.409687   -1.665992    0.771607
C       0.932542   -1.892145    0.466892
C       0.243878   -3.231265    0.350117
C       0.599204   -0.606966    1.311024
H       0.949900    1.957400    0.392987
H      -0.374267    2.042982   -0.787930
H      -0.735868    2.077570    0.939799
H      -1.943596    0.065522   -1.076145
H      -1.759612   -1.398904   -0.107408
H      -2.305197    0.099875    0.649501
H       1.311538   -0.617119   -1.530109
H       3.144212   -1.958344    0.011963
H       2.775533   -1.922900    1.772710
H       0.349880   -3.791423    1.286396
H      -0.822257   -3.159231    0.125798
H       0.711301   -3.826775   -0.442668
H       0.488918   -0.537996    2.397356
