21

C      -0.799784    0.919366   -0.027085
C       0.307451   -0.134233    0.018003
C       1.303787   -0.042183   -1.169870
C       2.652913   -0.485093   -0.629396
C       2.583003   -0.494151    0.875762
C       1.189339   -0.057014    1.294136
C       2.757190   -1.810398    0.121702
C       1.776241   -2.854010    0.069859
C       0.994926   -3.769158    0.028094
H      -0.381879    1.933010   -0.001566
H      -1.398408    0.828497   -0.939971
H      -1.480410    0.817864    0.825213
H      -0.158488   -1.121855   -0.009582
H       0.967734   -0.634241   -2.027882
H       1.392754    0.997167   -1.511695
H       3.547904   -0.163796   -1.151461
H       3.425570   -0.179643    1.482356
H       1.245656    0.978105    1.655196
H       0.775533   -0.659150    2.110129
H       3.774172   -2.192971    0.166635
H       0.299255   -4.570151   -0.008888
