17

O      -0.267489    1.451493   -0.096084
C      -0.155367    0.063940    0.031473
C      -0.448425   -0.674284    1.274821
O       0.479469   -1.558223    1.758528
C      -1.599130   -0.069173    2.071428
C      -2.516640   -0.096734    0.811021
C      -1.420399   -0.752258   -0.026458
C      -1.616565   -1.857768   -0.961605
O      -2.687695   -2.375478   -1.193027
H       0.474924    1.855652    0.366255
H       0.663068   -0.388772   -0.533721
H       0.030403   -2.215329    2.303360
H      -1.954650   -0.748170    2.851874
H      -1.393286    0.906008    2.522429
H      -3.380063   -0.753093    0.920513
H      -2.842995    0.880531    0.451930
H      -0.683386   -2.228120   -1.444862
