21

O      -0.070989    1.497433    0.056518
C       0.064714    0.078530    0.048034
C      -1.363787   -0.455400    0.225809
C      -1.521557   -1.960670    0.517105
O      -1.886478   -2.783082   -0.581258
C      -1.077632   -2.700450   -1.752524
C       0.393137   -2.855812   -1.481131
C       1.207054   -1.826690   -1.240217
C       0.797678   -0.373513   -1.236075
H       0.805974    1.883141   -0.035675
H       0.659827   -0.249304    0.917626
H      -1.775802    0.100559    1.074604
H      -1.975588   -0.176632   -0.640097
H      -0.610102   -2.339951    1.002560
H      -2.345387   -2.103795    1.222243
H      -1.444102   -3.505260   -2.396550
H      -1.266757   -1.752470   -2.276434
H       0.779625   -3.869893   -1.415762
H       2.246082   -2.032219   -0.990375
H       0.158490   -0.130849   -2.092483
H       1.697289    0.246381   -1.338314
