19

O       0.202614    1.229146    0.101008
C       0.014128   -0.138768   -0.112874
C      -1.441448   -0.534893    0.048337
O      -2.273128    0.322779    0.278022
C      -1.868848   -1.998950   -0.059161
O      -3.254982   -2.103541    0.132581
C      -1.454568   -2.610081   -1.385775
C      -0.113688   -3.290685   -1.535374
C      -1.379101   -4.108120   -1.507227
H      -0.681264    1.592470    0.263089
H       0.339530   -0.437769   -1.121778
H       0.615536   -0.736914    0.590434
H      -1.333268   -2.539147    0.743633
H      -3.565508   -1.204161    0.319999
H      -1.834931   -2.074064   -2.251138
H       0.413538   -3.178582   -2.475851
H       0.537600   -3.338437   -0.668475
H      -1.586366   -4.695415   -0.619288
H      -1.723620   -4.559639   -2.430145
