14

N      -0.142780    1.494946   -0.177957
C      -0.064367    0.089609   -0.022464
C      -0.347418   -0.836131   -1.189047
O       0.611018   -1.776153   -1.565096
C      -1.184827   -0.979159    0.046959
N      -0.454120   -1.664728    1.115363
C       0.623022   -0.747540    1.060569
O       1.643206   -0.679319    1.681191
H      -0.189793    1.959877    0.722929
H       0.675503    1.851328   -0.661749
H      -0.835213   -0.308503   -2.010617
H       0.168225   -2.475650   -2.058041
H      -2.254762   -0.829527    0.109018
H      -0.266541   -2.660355    1.069623
