23

C       0.003040    1.507506    0.043449
C       0.036860    0.013790   -0.033861
C      -0.009484   -0.747640   -1.134403
C      -0.012792   -2.203413   -0.826901
C       0.046283   -2.285201    0.697148
C       0.104787   -0.848357    1.217057
C      -1.183196   -2.785448   -0.031185
C      -2.516324   -2.074070    0.073309
C      -1.315470   -4.297598   -0.099478
H       0.879165    1.897234    0.578400
H      -0.017569    1.961918   -0.951021
H      -0.877405    1.862823    0.594685
H      -0.063163   -0.361058   -2.147060
H       0.542740   -2.884569   -1.464870
H       0.665274   -3.029017    1.187454
H       1.032656   -0.662577    1.775929
H      -0.715632   -0.614425    1.910478
H      -2.416467   -0.988251    0.025626
H      -3.181074   -2.381501   -0.742752
H      -3.016873   -2.328333    1.015672
H      -1.809522   -4.690412    0.797512
H      -1.913728   -4.601810   -0.966595
H      -0.338107   -4.783905   -0.180824
