14

C      -0.084566    1.580251   -0.012745
C       0.059811    0.061421   -0.012243
C       0.874353   -0.501673   -1.207773
O       1.712835   -1.483879   -0.611158
C       1.749748   -1.312518    0.734508
O       2.457124   -1.898216    1.482314
O       0.850799   -0.351158    1.110591
C      -1.265498   -0.586424    0.079450
N      -2.310640   -1.075847    0.121102
H       0.908039    2.036431   -0.031566
H      -0.648085    1.904536   -0.892028
H      -0.613547    1.912318    0.882454
H       0.252805   -0.972719   -1.969384
H       1.490606    0.281732   -1.660801
