18

O       0.474449   -0.026330   -0.911209
C       0.304665    0.884567   -0.139030
C       1.248529    2.024953   -0.001644
C       0.664839    3.393171    0.246335
N       1.440118    2.739885    1.267611
C       0.772736    2.299267    2.492819
C       1.034805    3.315913    3.582209
C       0.055158    4.354889    3.922643
O       0.219952    3.198045    4.745663
H      -0.594386    0.926340    0.514353
H       2.143544    1.929174   -0.610719
H       1.115436    4.250677   -0.245622
H      -0.416471    3.451456    0.377511
H      -0.314941    2.165381    2.394628
H       1.201011    1.334452    2.788403
H       2.088510    3.516301    3.776163
H       0.390469    5.293146    4.361317
H      -0.886419    4.407147    3.376697
