13

N       0.025741    1.316859    0.108292
C       0.046898    0.014636   -0.296942
O       1.031257   -0.532721   -0.753529
C      -1.229961   -0.671616   -0.142623
C      -2.261812   -1.286963   -0.044722
C      -3.465543   -2.089917    0.084454
C      -3.163197   -3.541482    0.481413
O      -3.863377   -4.177167    1.218999
H       0.883520    1.842570    0.067724
H      -0.788483    1.725236    0.532345
H      -4.172848   -1.674155    0.808992
H      -3.985637   -2.131932   -0.884957
H      -2.249360   -3.964581    0.014178
