14

N      -0.091528    1.342419   -0.116658
C      -0.000511    0.097920    0.076839
C      -1.249985   -0.749645    0.077401
O      -1.181390   -1.950997    0.854276
C       0.003919   -2.610484    0.920690
N       0.095059   -3.855004    1.114019
C       1.253212   -1.762692    0.920559
O       1.184711   -0.561754    0.143029
H       0.838146    1.763568   -0.172312
H      -2.080242   -0.163053    0.467923
H      -1.477028   -1.022108   -0.962334
H      -0.834571   -4.276292    1.169357
H       1.479586   -1.489688    1.960301
H       2.083819   -2.349257    0.530756
