18

C      -0.261050    1.575922    0.000497
C       0.015676    0.081016    0.003792
O      -1.190197   -0.651182   -0.179962
C       1.162190   -0.500228   -0.910010
C       1.725281   -1.237074    0.312505
C       2.160725   -0.247884    1.371532
C       2.771729    1.017918    1.058931
N       3.281348    2.024839    0.802324
C       0.689450   -0.583893    1.214751
H       0.640605    2.166975    0.170157
H      -0.673253    1.876890   -0.971421
H      -0.997667    1.822028    0.771432
H      -1.627538   -0.301861   -0.964295
H       0.742056   -1.174052   -1.657572
H       1.839443    0.213347   -1.387675
H       2.108200   -2.249571    0.328353
H       2.597584   -0.713177    2.250864
H       0.137265   -0.997392    2.050056
