21

C       0.012009    1.501108   -0.074102
C       0.044783   -0.013719    0.017671
O       0.716156   -0.513362   -1.137651
C       0.768871   -1.889471   -1.224256
C       1.343570   -2.266034   -2.588160
O       1.514308   -3.670409   -2.684524
C       2.348574   -4.164709   -1.648437
C       1.772010   -3.797665   -0.285942
O       1.610903   -2.390108   -0.190535
H       1.027721    1.905287   -0.105213
H      -0.513103    1.823093   -0.977913
H      -0.501719    1.921576    0.795575
H       0.568958   -0.343186    0.922356
H      -0.976083   -0.426619    0.053791
H      -0.236563   -2.341462   -1.102358
H       0.660309   -1.970192   -3.387807
H       2.299852   -1.735450   -2.715821
H       2.400196   -5.250294   -1.775791
H       3.364269   -3.747075   -1.741966
H       0.804248   -4.306927   -0.146608
H       2.443859   -4.096322    0.524376
