17

C      -0.200889    1.464768    0.072980
C       0.127092    0.012737   -0.035787
O      -0.775336   -0.941273    0.537207
C       0.594344   -0.993130    0.953002
C       1.365686   -1.776263   -0.135018
O       0.860666   -3.011865   -0.574031
C      -0.128391   -2.750915   -1.561022
O       0.127344   -1.466645   -2.116392
C       0.873724   -0.734897   -1.177950
H       0.679913    2.079219   -0.139371
H      -0.982496    1.737490   -0.644644
H      -0.561458    1.702292    1.077364
H       0.795349   -0.902107    2.014780
H       2.441625   -1.852040    0.035486
H      -0.032408   -3.498882   -2.356443
H      -1.128043   -2.779133   -1.114191
H       1.630897   -0.135833   -1.689330
