19

C      -0.012929    1.424579   -0.057854
O       0.391329    0.072839   -0.128832
C       0.792522   -0.505788    1.084362
C       2.064210    0.109744    1.658576
C      -0.321209   -0.778817    2.129350
O      -0.010376   -2.186999    2.143090
C       0.863081   -2.066646    0.990118
C       0.329854   -2.688658   -0.208981
C      -0.096424   -3.237243   -1.189380
H       0.822247    2.103770    0.161230
H      -0.420397    1.679957   -1.038494
H      -0.796676    1.580851    0.698206
H       1.906100    1.148469    1.963841
H       2.388386   -0.448346    2.541659
H       2.865478    0.084609    0.913497
H      -0.205155   -0.325582    3.119886
H      -1.331591   -0.587588    1.746540
H       1.854247   -2.480194    1.214378
H      -0.478024   -3.711740   -2.059427
