19

C      -0.081731    1.625740   -0.042110
C      -0.280017    0.115537    0.120489
C       0.636236   -0.533272    1.154766
C       0.473252   -0.005206    2.569616
C       0.778692   -2.072608    1.026523
C       2.194153   -1.758772    0.598354
N       3.182454   -2.447041    0.245425
O       2.054263   -0.395659    0.726391
H       0.966696    1.853058   -0.255751
H      -0.686363    2.003771   -0.871438
H      -0.374087    2.178378    0.855562
H      -1.318553   -0.106492    0.398540
H      -0.102753   -0.378027   -0.842310
H      -0.551457   -0.168865    2.919950
H       1.156967   -0.517743    3.251847
H       0.685461    1.065872    2.617978
H       0.698922   -2.637020    1.957419
H       0.161833   -2.545286    0.259844
H       3.984150   -1.851781    0.028405
