17

C      -0.023333    1.547419    0.018570
C      -0.015602    0.008163    0.033396
C       0.746774   -0.513708    1.264631
C      -1.455139   -0.537219    0.021115
C       0.701432   -0.485914   -1.227227
F       1.971453   -0.047334   -1.285767
F       0.747307   -1.828794   -1.284202
F       0.089644   -0.066307   -2.349007
H       0.993722    1.948046    0.010992
H      -0.549439    1.932175   -0.858968
H      -0.530798    1.921938    0.912189
H       0.250993   -0.170835    2.177320
H       0.772633   -1.606406    1.280267
H       1.776347   -0.146579    1.277449
H      -2.003706   -0.186662   -0.857048
H      -1.464212   -1.630325    0.016344
H      -1.986344   -0.195471    0.914112
