21

C       0.109812    1.528875   -0.061430
C       0.071702    0.009191    0.085377
N      -1.287838   -0.496125    0.105249
C      -2.117041   -0.252533    1.295624
C      -2.732819   -1.673633    1.126026
C      -4.026673   -1.698763    0.465167
N      -5.058973   -1.725868   -0.055416
C      -1.498979   -1.954212    0.197540
C      -1.675399   -2.694259   -1.113791
H       1.143136    1.886579   -0.093229
H      -0.397702    1.839101   -0.978993
H      -0.385546    2.021239    0.782151
H       0.587696   -0.457063   -0.762503
H       0.623794   -0.292235    0.998897
H      -1.539158   -0.188266    2.232605
H      -2.798349    0.599491    1.231178
H      -2.780980   -2.278710    2.032372
H      -0.719675   -2.442930    0.809234
H      -2.485539   -2.255866   -1.701309
H      -0.753799   -2.643306   -1.702907
H      -1.900440   -3.751147   -0.936453
