21

C      -0.224514    1.478526   -0.016279
C      -0.034030   -0.049903   -0.033895
C       0.823738   -0.453805    1.185047
C      -1.414035   -0.735824    0.031961
C       0.693960   -0.496676   -1.310104
C       0.609970    0.241271   -2.594636
O       1.773368    0.333832   -1.791808
C       1.060694   -1.945435   -1.508489
O       0.644665   -2.885746   -0.882095
H       0.719013    2.000370   -0.194164
H      -0.953518    1.811291   -0.762049
H      -0.605587    1.784000    0.962828
H       0.332350   -0.134278    2.109433
H       0.966840   -1.535076    1.234256
H       1.807064    0.026331    1.144147
H      -2.025994   -0.472120   -0.837963
H      -1.319113   -1.821645    0.071169
H      -1.949461   -0.401499    0.926832
H       0.732189   -0.291727   -3.537572
H      -0.008013    1.133665   -2.642749
H       1.800749   -2.069834   -2.331091
