25

C       0.044366    1.599544    0.025608
C       0.017774    0.068365   -0.017027
C       0.598903   -0.561513    1.255994
C       0.713663   -2.096712    1.234252
C      -0.634644   -2.775531    1.001211
C       1.903227   -2.593902    0.344021
C       2.804675   -2.659700    1.606083
C       1.515712   -2.625453    2.465609
O       1.464560   -1.802068    3.609183
H       1.068783    1.976030    0.123862
H      -0.384526    2.033136   -0.883507
H      -0.527918    1.980477    0.878834
H      -1.015602   -0.267292   -0.162815
H       0.576796   -0.279981   -0.895370
H       1.589567   -0.129384    1.443459
H      -0.013041   -0.269797    2.118138
H      -1.039758   -2.544933    0.010825
H      -0.540189   -3.864758    1.069742
H      -1.372334   -2.455658    1.746761
H       1.711208   -3.582558   -0.082639
H       2.228372   -1.930528   -0.460708
H       3.466850   -3.522126    1.717469
H       3.388437   -1.745852    1.744519
H       1.189038   -3.648133    2.708915
H       2.010369   -2.201664    4.293442
