17

C      -0.006872    1.513168   -0.061352
C      -0.018603    0.017805    0.040605
O       0.339738   -0.709057   -1.190235
C      -0.274093   -1.858093   -0.530004
C       0.610181   -2.028609    0.707573
C       0.785036   -0.758804    1.092671
C      -1.318303   -0.854868    0.034160
C      -2.550395   -0.911568    0.802261
O      -2.505946   -0.483386   -0.587447
H       0.977050    1.864225   -0.386220
H      -0.755878    1.847761   -0.783341
H      -0.229054    1.966406    0.909973
H      -0.513984   -2.694287   -1.183282
H       0.935730   -2.954532    1.158187
H       1.296864   -0.345371    1.949800
H      -3.048868   -1.864159    0.972433
H      -2.788260   -0.125313    1.516618
