19

C       0.009805    1.506330    0.011004
O       1.200439    0.720777   -0.002892
C      -0.070753    0.036063    0.001432
C      -0.399314   -0.727908    1.236108
C      -0.956857   -1.932922    1.093040
C      -1.209735   -2.443413   -0.310326
C       0.075711   -2.186422   -1.160052
C      -0.425866   -0.716321   -1.271073
C      -1.868262   -1.293668   -1.138795
H      -0.180240    2.055172    0.933297
H      -0.202333    2.057890   -0.905242
H      -0.163953   -0.284780    2.198048
H      -1.227729   -2.545436    1.946999
H      -1.665936   -3.433868   -0.328140
H       1.042968   -2.366894   -0.686739
H       0.029459   -2.691788   -2.128167
H      -0.161828   -0.134347   -2.156178
H      -2.242207   -1.644912   -2.104316
H      -2.628458   -0.685742   -0.642520
