14

O       0.028713    1.354647   -0.098319
C       0.052999   -0.010610    0.029671
C      -0.384565   -0.699821    1.321338
C      -0.807203    0.078294    2.445790
N      -1.138782    0.705265    3.358835
C      -1.289800   -0.719984    0.066858
O      -2.378652    0.128957    0.062320
C      -1.507551   -1.994968   -0.650143
O      -2.551811   -2.213128   -1.220021
H      -0.900056    1.632918   -0.107179
H       0.883970   -0.472409   -0.495230
H       0.115235   -1.632416    1.566313
H      -3.054861   -0.323329   -0.469790
H      -0.669219   -2.718669   -0.644718
