14

C       0.010625    1.503712    0.062730
N       0.012112    0.044560    0.011437
C       0.072785   -0.646698    1.219744
N       0.124571   -0.011151    2.319837
C      -0.043115   -0.693169   -1.165472
O      -0.040944   -1.908983   -1.189560
C      -0.105313    0.070711   -2.400705
C      -0.159376    0.594591   -3.482008
H       0.917811    1.858039    0.558072
H      -0.039713    1.897812   -0.949923
H      -0.846112    1.853227    0.643882
H       0.068780   -1.726607    1.076795
H       0.164209   -0.667427    3.097791
H      -0.207132    1.059007   -4.437101
