19

O       0.075625    1.437126    0.030982
C       0.020760    0.024880    0.021924
C      -1.419233   -0.506979    0.089034
C      -1.457622   -2.040840    0.052214
C      -0.758880   -2.595917   -1.208188
C       0.653644   -2.050747   -1.301962
O       1.640247   -2.740628   -1.416325
C       0.751844   -0.520753   -1.217583
O       0.095454    0.074836   -2.345312
H      -0.166872    1.714253   -0.861964
H       0.571176   -0.309991    0.910200
H      -1.889147   -0.126777    1.000829
H      -1.982406   -0.100192   -0.759283
H      -0.964006   -2.446068    0.945170
H      -2.492347   -2.395663    0.081335
H      -0.717363   -3.687151   -1.213938
H      -1.310209   -2.262578   -2.096278
H       1.809742   -0.236843   -1.185047
H       0.661070   -0.036729   -3.115597
