15

C       0.012756    1.498141    0.088655
C       1.301839    0.735322    0.040711
O       1.972258    0.436552    1.265383
C       1.138972   -0.400681    1.934440
N       1.266689   -0.945749    3.123242
N       0.127294   -1.699811    3.195708
C      -0.674419   -1.611722    2.093313
C      -0.032649   -0.750114    1.236314
C      -0.027234   -0.023909   -0.049712
H      -0.303285    1.932267    1.030621
H      -0.230837    2.081394   -0.793081
H       1.997961    0.851895   -0.779707
H      -0.022822   -2.256621    4.017948
H      -1.601464   -2.159273    2.031643
H      -0.376365   -0.470208   -0.973044
