15

C       0.255883    1.451783   -0.021391
N       0.362729    0.001505    0.063519
C       0.478138   -0.668764   -0.980207
C       0.609826   -2.145585   -1.289993
C       0.654368   -1.641607   -2.761820
O       0.518563   -0.274098   -2.316696
C       1.947017   -1.917967   -3.493976
O       2.845666   -1.132519   -3.620873
H       1.064524    1.901515    0.564263
H       0.299679    1.844819   -1.043252
H      -0.686478    1.766920    0.439425
H       1.523649   -2.613350   -0.918575
H      -0.253066   -2.756218   -1.022635
H      -0.197906   -1.951351   -3.378258
H       2.003524   -2.955340   -3.900059
