14

C       0.006821    1.402606    0.063494
N      -0.069493   -0.043232   -0.007250
C       0.543775   -0.609575   -0.938309
O       0.500284   -1.983863   -1.010172
C       1.081118   -2.588173   -2.062245
C       1.527992   -3.869410   -2.145979
O       1.980404   -4.055996   -3.388795
N       1.810620   -2.838431   -4.079968
N       1.279736   -2.007111   -3.287417
H       0.430796    1.693990    1.030339
H       0.609139    1.860520   -0.735986
H      -1.005211    1.818639    0.019787
H       1.134284   -0.141586   -1.731157
H       1.574152   -4.692456   -1.454975
