19

C      -0.006356    1.459851    0.309298
O      -0.026120    0.087055   -0.091033
C      -1.235357   -0.476200   -0.122898
N      -2.347533    0.095919    0.149880
C      -3.364644   -0.936981   -0.009348
C      -4.047392   -1.035324   -1.410088
C      -3.464426   -2.469847   -1.592972
C      -2.614418   -2.291345   -0.309011
N      -1.250618   -1.806417   -0.523713
H       1.042418    1.758377    0.291921
H      -0.592067    2.069672   -0.383426
H      -0.423530    1.574474    1.313330
H      -4.067424   -0.933428    0.827806
H      -5.137375   -0.959877   -1.417520
H      -3.641767   -0.298491   -2.106449
H      -4.217122   -3.255908   -1.484300
H      -2.893562   -2.653527   -2.505904
H      -2.647422   -3.105720    0.421220
H      -0.464922   -2.378733   -0.252574
