17

C       0.899307    0.951420   -0.748158
C      -0.042003    0.103989    0.067823
O       0.430577   -1.139795    0.592985
C       0.038933   -0.127369    1.527750
C       1.085020    0.423594    2.438413
C       2.550469    0.269261    2.146283
N       0.608387    0.976539    3.491077
O       1.618741    1.493776    4.309531
H       1.887736    1.033328   -0.296052
H       1.016030    0.523758   -1.749671
H       0.485357    1.958953   -0.863248
H      -1.047496    0.031383   -0.354075
H      -0.902515   -0.316337    2.042180
H       2.705347   -0.463923    1.355234
H       2.996179    1.225464    1.849393
H       3.071145   -0.048134    3.053592
H       1.119437    1.826790    5.062809
