21

C      -0.280096    1.554148    0.079157
C      -0.363863    0.033825    0.243867
C       0.762271   -0.547677    1.122242
C       0.670972   -0.092003    2.564324
C       0.236096   -1.050824    3.379752
C      -0.010139   -2.348353    2.650770
C       0.721706   -2.110358    1.294872
C       0.178839   -2.866815    0.177544
C      -0.268081   -3.506446   -0.737997
H       0.684013    1.853535   -0.348083
H      -1.065513    1.918706   -0.590076
H      -0.395090    2.074873    1.035378
H      -1.334996   -0.238700    0.675383
H      -0.318468   -0.445227   -0.739965
H       1.718626   -0.257572    0.667880
H       0.890359    0.926793    2.863377
H       0.045048   -0.933353    4.440817
H       0.384268   -3.227145    3.171354
H      -1.082779   -2.528376    2.502211
H       1.761956   -2.425828    1.442812
H      -0.661450   -4.070613   -1.546801
