12

O      -0.042783    1.269510    0.008879
C       1.123270    1.974070    0.002210
N       2.321891    1.523001   -0.011405
C       2.396514    0.153139   -0.019835
C       3.396859   -0.760367   -0.034819
N       2.876679   -2.077150   -0.037051
C       1.576213   -2.023496   -0.023227
C       1.147536   -0.631291   -0.012812
N      -0.034334   -0.128148    0.000908
H       0.898399    3.035335    0.010148
H       4.464798   -0.604580   -0.044346
H       0.943006   -2.900232   -0.021589
