12

N       0.077484    1.345573    0.148206
C       0.036074   -0.022260    0.043976
N      -1.091265   -0.696619    0.024940
O      -0.710333   -2.051686   -0.014168
C       0.616612   -2.132947   -0.028420
C       1.185740   -0.893589    0.004658
C       2.540302   -0.507592   -0.003420
C       3.682553   -0.124741   -0.018189
H       0.907732    1.774134   -0.232795
H      -0.778537    1.816290   -0.105795
H       1.040474   -3.124686   -0.062969
H       4.695370    0.194493   -0.020608
