13

O       0.091595    1.185290   -0.807250
C       0.051099    0.124942    0.136392
C      -1.278734   -0.462803    0.300758
C      -2.396172   -0.889924    0.444534
C      -3.718788   -1.479104    0.586575
C      -3.799594   -2.882857   -0.021300
O      -4.426874   -3.781748    0.467182
H      -0.576762    1.828394   -0.548574
H       0.750880   -0.631220   -0.236195
H       0.428112    0.446122    1.120524
H      -4.043860   -1.537647    1.630416
H      -4.461484   -0.864176    0.054964
H      -3.235145   -3.001170   -0.971243
