15

O      -0.164757    0.129031   -0.485556
C       0.055223    1.135918    0.149725
C       1.270857    1.896139    0.085118
C       2.276887    2.570578    0.060437
C       3.459841    3.337980    0.027154
C       4.032709    4.114515    1.191724
C       3.705324    4.851646   -0.074437
C       4.701251    4.468777   -1.161246
O       4.494157    3.049320   -0.921438
H      -0.695359    1.555746    0.851233
H       3.350910    4.287073    2.017117
H       5.064344    3.910729    1.464176
H       2.977198    5.648831   -0.124903
H       4.373134    4.736509   -2.170760
H       5.745389    4.765252   -1.013499
