19

C      -0.018494    1.474150   -0.079410
C       0.005969   -0.006978    0.107809
C      -0.999901   -0.862102    0.268335
C      -2.383019   -1.245818   -0.198188
O      -1.847792   -2.546126   -0.598224
C      -0.609538   -2.292934    0.132090
C       0.778037   -2.219782   -0.553596
O       0.584645   -2.186039   -1.952777
C       1.289640   -0.840749   -0.007203
H       0.531996    1.989099    0.718619
H       0.463684    1.758082   -1.023649
H      -1.040402    1.862983   -0.083410
H      -3.151503   -1.363179    0.577337
H      -2.795749   -0.681157   -1.041667
H      -0.572202   -2.916061    1.036856
H       1.441448   -3.048962   -0.266469
H       1.448476   -2.083411   -2.364138
H       2.008055   -0.387981   -0.702721
H       1.814082   -0.961572    0.950986
