19

C      -0.120457    1.608489   -0.073722
C      -0.024983    0.093221   -0.009239
O      -1.294439   -0.512928   -0.200676
C       1.183575   -0.621725   -0.666817
C       2.131222   -0.288485    0.542811
C       2.573838   -1.759136    0.685650
C       1.084923   -1.851308    0.297193
C       0.727295   -0.571743    1.156104
O       0.451330   -0.502768    2.505856
H       0.846378    2.085107    0.107797
H      -0.468831    1.934934   -1.062118
H      -0.832170    1.975622    0.672158
H      -1.695272   -0.137411   -0.991255
H       1.480212   -0.655641   -1.713905
H       2.715810    0.622868    0.670483
H       3.297998   -2.126609   -0.047997
H       2.840942   -2.091486    1.692613
H       0.455403   -2.726993    0.149805
H      -0.438313   -0.849544    2.640169
