19

O       0.226769    1.446132   -0.130555
C       0.142066    0.043989   -0.057862
C       0.293859   -0.600308    1.407131
C      -1.261162   -0.587730    1.479526
C      -2.590601   -1.426486    1.423659
C      -2.854253   -0.371109    0.248403
O      -2.995757    0.847733    0.943411
C      -1.865704    0.788690    1.843405
C      -1.309525   -0.564886   -0.034570
H       1.151648    1.694120   -0.029198
H       0.787267   -0.418594   -0.817161
H       0.724594   -1.602695    1.344114
H       0.845534   -0.015706    2.150402
H      -2.459744   -2.453867    1.083918
H      -3.292145   -1.369796    2.261449
H      -3.643299   -0.480991   -0.496059
H      -2.212636    0.821176    2.883555
H      -1.201722    1.631269    1.646772
H      -1.183503   -1.583113   -0.415080
