20

C       0.780913    1.476657   -0.019465
C      -0.012669    0.160781    0.040673
C       0.172999   -0.770658   -1.186069
C       1.085297   -1.912348   -0.730565
C       1.099466   -3.204080   -1.504854
N       2.326251   -1.384210   -0.148674
C       1.221814   -1.849683    0.754172
C       0.415214   -0.688080    1.254309
O       0.102178   -0.481524    2.400225
H       1.843891    1.278001   -0.173939
H       0.419893    2.102856   -0.841684
H       0.660117    2.034526    0.913665
H      -1.069954    0.403487    0.186662
H      -0.790194   -1.186520   -1.501425
H       0.602519   -0.246867   -2.046344
H       1.468865   -3.042379   -2.524180
H       1.745660   -3.947218   -1.025751
H       0.093326   -3.629493   -1.579523
H       3.037203   -2.114182   -0.153037
H       1.379390   -2.715230    1.387320
