18

C      -0.061908    1.540242    0.021071
C       0.006530    0.016200    0.004712
C      -1.372614   -0.678380    0.045396
C      -1.083305   -1.960477    0.826337
O      -0.095874   -1.576801    1.797103
C       0.738733   -0.625205    1.230538
O       1.920057   -1.234097    0.641379
C       1.774479   -1.088229   -0.696294
N       0.787894   -0.442832   -1.163373
H       0.942235    1.974757    0.027031
H      -0.578471    1.903202   -0.871739
H      -0.601171    1.896243    0.905075
H      -2.089907   -0.057445    0.591087
H      -1.755335   -0.859539   -0.960145
H      -1.940882   -2.354260    1.375374
H      -0.688968   -2.752216    0.175725
H       1.091866    0.042201    2.018045
H       2.556567   -1.553267   -1.287506
