14

O      -0.135189   -0.029831   -0.255103
C      -0.032435    1.150845   -0.034047
N      -1.096315    2.040167    0.157286
C      -0.658457    3.333347    0.482089
C       0.653330    3.447308    0.229804
C       1.877983    3.775120    1.059252
N       2.108877    2.285531    1.120431
C       1.204818    2.076524   -0.062140
H      -2.054038    1.728122    0.161122
H      -1.332820    4.012822    0.986645
H       2.665994    4.315744    0.518086
H       1.720192    4.246666    2.033463
H       3.068977    2.019932    0.917969
H       1.740120    1.914355   -1.005580
