23

C       0.038861    1.577976   -0.060513
C       0.078478    0.049076    0.034259
C       0.682815   -0.498766    1.340890
C      -0.174245   -0.156724    2.568537
C       0.897303   -2.010490    1.242003
C       1.976264   -2.569096    0.233726
C       2.680215   -3.227234    1.425740
O       3.023545   -2.181970    2.344382
C       1.687110   -2.700400    2.373331
H       1.040108    2.005888    0.062982
H      -0.341272    1.899446   -1.035381
H      -0.607124    2.021047    0.703624
H      -0.937844   -0.352751   -0.085287
H       0.657306   -0.340042   -0.812724
H       1.673572   -0.044527    1.476982
H       0.277399   -0.544923    3.486910
H      -0.288678    0.923432    2.694847
H      -1.178665   -0.589419    2.479792
H      -0.060784   -2.520631    1.084403
H       1.560144   -3.282808   -0.480902
H       2.579604   -1.828940   -0.298380
H       3.280499   -4.128980    1.458903
H       1.333132   -3.093720    3.319625
