16

O      -0.113684    1.469150   -0.070082
C      -0.012018    0.063488   -0.092990
C      -1.320866   -0.697925   -0.119515
C      -1.753100   -0.834074   -1.606564
C      -0.696897   -0.111195   -2.440225
C       0.344772   -0.659774   -1.430851
C      -0.729386   -1.761024   -0.998600
O      -0.665790   -3.108091   -0.762572
H       0.775732    1.836390   -0.038516
H       0.625454   -0.307806    0.721390
H      -2.041705   -0.826990    0.676799
H      -2.789934   -1.037100   -1.841845
H      -0.583914   -0.562271   -3.430056
H      -0.760864    0.977454   -2.521855
H       1.382026   -0.828628   -1.715009
H      -0.623209   -3.565437   -1.610134
