21

C      -0.227754    1.274945   -0.193711
C       1.218457    0.911946    0.033498
C       0.160496   -0.154564    0.102862
C      -0.234291   -0.770330    1.418999
C       0.813142   -1.212163    2.352862
O       0.115944    0.017264    2.571977
C      -1.605907   -1.378706    1.412372
C      -1.792526   -2.845449    1.089872
C      -2.097954   -2.326840    2.470704
H      -0.722899    1.829027    0.596284
H      -0.554183    1.523689   -1.197241
H       1.894117    0.908417   -0.814481
H       1.657674    1.231599    0.971346
H       0.105100   -0.849620   -0.730439
H       0.619789   -1.992116    3.086823
H       1.855926   -1.109813    2.055285
H      -2.354091   -0.709135    0.996554
H      -2.614151   -3.133370    0.443662
H      -0.897217   -3.446182    0.967835
H      -1.433520   -2.600922    3.281552
H      -3.136547   -2.239291    2.769363
