20

C       0.085805    1.517851   -0.172346
C       0.012798    0.021499    0.138865
N       0.306992   -0.760431   -1.082491
C       1.345309   -1.436883   -0.821509
O       1.913472   -1.373518    0.402717
C       1.031617   -0.522161    1.199024
C       1.851990    0.468886    1.972624
C       1.339438    0.971222    3.302495
C       2.521923    0.040440    3.253576
H       1.076022    1.798881   -0.543581
H      -0.641277    1.759939   -0.951563
H      -0.137974    2.118956    0.713741
H      -1.006978   -0.212969    0.462006
H       1.857586   -2.092625   -1.518041
H       0.519586   -1.188973    1.904215
H       2.394098    1.182886    1.361451
H       1.507071    2.012727    3.551601
H       0.396695    0.575891    3.666693
H       2.377791   -0.984175    3.579669
H       3.504703    0.442227    3.471485
