20

C      -0.197531    1.578194   -0.029803
C       0.041730    0.076551    0.024709
C       1.169500   -0.571739   -0.861160
C       1.644899   -1.435534    0.351138
N       2.874184   -0.914004    1.015479
C       2.049469   -0.071467    1.915021
C       1.385142   -0.709896    3.163235
O       0.138151   -0.944669    2.453409
C       0.734867   -0.537448    1.233171
H       0.734662    2.130470    0.132186
H      -0.598165    1.880306   -1.003229
H      -0.913567    1.891338    0.737615
H      -0.899644   -0.462163   -0.140934
H       0.812935   -1.128079   -1.730116
H       1.938739    0.137020   -1.176093
H       1.541697   -2.518205    0.262064
H       3.419245   -1.622295    1.498069
H       2.384766    0.962094    2.025720
H       1.848048   -1.642718    3.509743
H       1.230776   -0.039598    4.016314
