27

C      -0.645314    1.152581    0.333376
C      -0.208802   -0.280964    0.024121
C       0.624962   -0.418572   -1.256655
C       1.031584   -1.876804   -1.503969
C       1.924133   -2.119646   -2.733989
C       3.338104   -1.547769   -2.556179
C       1.992106   -3.618932   -3.056031
O      -0.143014    0.034654   -2.376826
C       0.344282    1.190661   -3.018621
H       0.217805    1.814575    0.469111
H      -1.257135    1.554638   -0.478888
H      -1.239415    1.192808    1.251592
H       0.375310   -0.682856    0.861589
H      -1.094362   -0.921096   -0.076118
H       1.523638    0.208998   -1.159081
H       1.534038   -2.262205   -0.606060
H       0.105994   -2.455911   -1.616816
H       1.448111   -1.614098   -3.583731
H       3.850207   -2.028813   -1.713512
H       3.945139   -1.718710   -3.451549
H       3.331062   -0.469965   -2.366493
H       0.994982   -4.032655   -3.239299
H       2.603127   -3.807178   -3.945285
H       2.437115   -4.179225   -2.224481
H       0.372861    2.062220   -2.348234
H       1.353410    1.042158   -3.432053
H      -0.338423    1.411220   -3.844349
