21

C      -0.289357    1.487617    0.251521
C      -0.060627   -0.007511    0.008683
C       0.840795   -0.630567    1.059584
O       0.268207   -0.582859    2.395204
C       0.492213   -1.999107    2.626631
C      -0.747059   -2.719276    3.116612
C       0.937482   -2.150823    1.172378
C       0.704087   -3.210299    0.193346
O       2.014125   -2.940514    0.724058
H       0.653328    2.044073    0.208392
H      -0.963403    1.910897   -0.498843
H      -0.730084    1.649912    1.239011
H      -1.019480   -0.539435    0.006855
H       0.398116   -0.166842   -0.976232
H       1.834488   -0.157448    1.047177
H       1.330767   -2.150352    3.321783
H      -1.572256   -2.604593    2.407838
H      -0.541022   -3.786669    3.251169
H      -1.062912   -2.311921    4.081996
H       0.259830   -4.153567    0.507662
H       0.567245   -2.959663   -0.857491
