15

N       0.084605    1.311921    0.143614
C      -0.049834   -0.051022    0.045535
N      -1.150039   -0.746053    0.023181
C      -0.672361   -2.054628    0.012346
C       0.675173   -2.062013    0.020267
C       1.245645   -3.432862   -0.016123
C      -0.056314   -4.241252   -0.039180
C      -1.142780   -3.438633   -0.023112
O       1.122220   -0.764159    0.042096
H       0.912407    1.685527   -0.297991
H      -0.760498    1.801951   -0.111051
H       1.858340   -3.640421   -0.903221
H       1.857714   -3.688485    0.858686
H      -0.057230   -5.322386   -0.060938
H      -2.175892   -3.758591   -0.033392
