14

C      -0.003045    1.369107    0.024131
C       1.438527    1.907899    0.040730
O       2.161071    1.504116    1.208028
C       1.908929    0.186732    1.429906
C       0.906453   -0.505086    0.843528
O       0.947121   -1.786019    1.278570
C       2.016089   -1.787775    2.135639
N       2.618383   -0.646685    2.260420
O      -0.037474   -0.073701   -0.008208
H      -0.541353    1.714756    0.914774
H      -0.524078    1.707941   -0.872991
H       1.967001    1.556036   -0.855436
H       1.422706    2.999995    0.042206
H       2.249080   -2.728266    2.605349
