15

N       0.004488    1.355550   -0.062565
C       0.064235   -0.016400   -0.033160
O       1.126769   -0.617599   -0.060987
C      -1.237080   -0.706528   -0.001487
C      -1.342030   -2.048065    0.018681
N      -2.665835   -2.459612    0.035931
C      -3.541883   -1.376501    0.024701
O      -4.745005   -1.440970    0.036226
C      -2.634992   -0.131343   -0.002523
H       0.877931    1.845810    0.044463
H      -0.839254    1.850405    0.170513
H      -0.533406   -2.764092    0.019327
H      -2.985958   -3.414162    0.052954
H      -2.867799    0.490850    0.870193
H      -2.870908    0.463650   -0.892392
