18

C       0.163820    1.368934    0.219877
C       0.005596   -0.086214   -0.035002
N      -0.295636   -0.684883   -1.143081
C      -0.310595   -2.036383   -0.815471
C      -0.015027   -2.194711    0.496671
C       0.125573   -3.352560    1.415594
C       1.554743   -3.544237    1.932836
O       1.537705   -4.664311    2.801323
O       0.193272   -0.935117    1.012228
H       1.171778    1.600786    0.579778
H      -0.015687    1.910646   -0.708981
H      -0.544446    1.716782    0.979179
H      -0.536901   -2.795692   -1.547488
H      -0.538797   -3.241558    2.281210
H      -0.185278   -4.258869    0.887269
H       2.234020   -3.700249    1.080398
H       1.880252   -2.631399    2.453748
H       2.425555   -4.791555    3.147662
