12

O      -0.020827   -0.064933   -0.001038
C      -0.018570    1.141389    0.009539
C       1.195226    1.969760    0.003050
C       1.343339    3.339689    0.013443
C       2.762378    3.502275   -0.001342
N       3.385250    2.352123   -0.018414
O       2.401388    1.381563   -0.015780
C       0.347846    4.336610    0.033514
C      -0.487112    5.203583    0.050640
H      -0.948830    1.743458    0.025394
H       3.329388    4.421427    0.000256
H      -1.228121    5.964782    0.065873
