21

C      -0.048473    1.457637    0.075254
C       0.001797   -0.047285   -0.005802
C       1.324471   -0.752023   -0.286430
C       0.635394   -0.922706    1.047749
O       1.179081   -0.354303    2.200649
C      -0.457464   -2.000144    1.224850
C      -1.724920   -1.077773    1.284326
C      -1.322720   -0.824179   -0.214425
C      -0.912293   -2.321087   -0.223813
H       0.836120    1.850801    0.584220
H      -0.098131    1.911286   -0.921428
H      -0.927929    1.793924    0.636122
H       1.423963   -1.558087   -1.003925
H       2.186251   -0.091389   -0.254021
H       1.912391   -0.907567    2.489631
H      -0.264864   -2.784139    1.959073
H      -2.662220   -1.630108    1.394527
H      -1.692875   -0.230379    1.973333
H      -2.025534   -0.418969   -0.944033
H      -0.190074   -2.684767   -0.955355
H      -1.787406   -2.974765   -0.229085
