20

C      -0.222076    1.495500   -0.078301
C       0.102980   -0.001339   -0.015604
C       0.737680   -0.451371    1.280247
O       0.854217   -1.886184    1.384400
C       0.245128   -1.889634    2.701458
C       0.098198   -0.352629    2.692072
C       1.318288    0.478144    3.153314
N       2.518350   -0.364752    2.972329
C       1.960396    0.360784    1.808663
H       0.676798    2.114204    0.002474
H      -0.709106    1.743192   -1.025835
H      -0.900396    1.789646    0.729725
H      -0.808922   -0.590513   -0.164269
H       0.782492   -0.273886   -0.834792
H      -0.707512   -2.432782    2.691160
H       0.913524   -2.306378    3.459024
H      -0.882893    0.089456    2.858935
H       1.315178    1.301600    3.856784
H       3.319043    0.176178    3.297568
H       2.577513    1.060395    1.256296
