19

C       0.017586    1.536248    0.087687
C      -0.035841    0.020608    0.084795
O       0.738996   -0.447341    1.197772
C       0.815856   -1.776746    1.346928
N       1.475912   -2.282375    2.295083
C       1.507941   -3.725124    2.384425
C       2.978125   -4.198322    2.386141
C       3.095331   -5.645362    2.539918
N       3.165306   -6.792791    2.658365
H       1.049036    1.884987   -0.009420
H      -0.565118    1.932140   -0.748929
H      -0.394505    1.933633    1.018924
H      -1.069775   -0.336059    0.181695
H       0.378209   -0.385335   -0.847670
H       0.264054   -2.359741    0.592114
H       1.044450   -4.036508    3.327810
H       0.962419   -4.229071    1.569639
H       3.464446   -3.897575    1.451916
H       3.514675   -3.698842    3.199039
