16

O      -0.197104    1.243311   -0.396927
N      -0.052496   -0.129413   -0.172244
C      -1.167660   -0.685406    0.059183
C      -2.625786   -0.246020    0.225671
O      -3.284276    0.391310   -0.837747
C      -2.983308   -1.738690    0.567867
C      -3.261268   -2.618772   -0.651888
O      -1.845653   -2.836020   -0.884421
C      -1.486797   -2.134420    0.334992
H       0.713665    1.526856   -0.535607
H      -2.749149    0.399996    1.102126
H      -2.872046    0.113993   -1.662044
H      -3.537550   -1.915325    1.486904
H      -3.772391   -3.561904   -0.425124
H      -3.760754   -2.134615   -1.498886
H      -0.846545   -2.723725    0.993493
