16

C       0.238090    0.678075   -0.737206
C      -0.058830   -0.073559    0.539341
O       0.633689   -0.013594    1.524052
C      -1.337167   -0.937628    0.552390
C      -1.196479   -2.185300   -0.294438
O      -0.754106   -2.234631   -1.411393
O      -1.657664   -3.273050    0.394607
C      -1.608888   -4.502973   -0.226699
N      -2.068071   -5.488565    0.401689
H       1.204565    1.176488   -0.658900
H       0.219035   -0.010110   -1.587038
H      -0.545892    1.425181   -0.911833
H      -1.574048   -1.206593    1.580656
H      -2.167812   -0.360673    0.127550
H      -1.160543   -4.459952   -1.218873
H      -1.970037   -6.333742   -0.159335
