16

C      -0.018349    1.462391    0.113114
C       0.017202   -0.027195    0.055761
N       0.101979   -0.696964   -1.086517
N       0.108919   -1.993351   -0.676548
C       0.161309   -3.057907   -1.646478
C      -1.076852   -3.090721   -2.546332
O      -1.155689   -3.808173   -3.504460
C       0.023753   -2.037454    0.669676
N      -0.032233   -0.820419    1.169173
H       0.822351    1.845265    0.699841
H       0.030863    1.880456   -0.893489
H      -0.936295    1.807570    0.598734
H       1.048817   -2.956425   -2.278294
H       0.233532   -4.013376   -1.117069
H      -1.894433   -2.406083   -2.235908
H       0.012153   -2.963886    1.225396
