13

C       0.202922   -1.072164   -0.205091
C       0.065263    0.114487   -0.082996
C      -0.084951    1.519471    0.065923
N      -1.151783    2.184244   -0.121083
C      -0.835747    3.583250    0.154664
C       0.689131    3.578614    0.516818
O       1.051593    2.185413    0.459619
C       1.519165    4.346215   -0.416080
N       2.147789    4.981910   -1.147456
H       0.317126   -2.122994   -0.317072
H      -1.050124    4.203411   -0.719631
H      -1.444072    3.951917    0.985888
H       0.879894    3.935715    1.532519
