18

O       0.045983    1.418038    0.001197
C      -0.005045    0.009466   -0.038245
C      -1.425531   -0.469493    0.007619
C      -2.475435    0.350652    0.123817
C      -3.856866   -0.137033    0.083783
N      -4.836914    0.669939    0.006129
O      -4.053664   -1.493673    0.070314
C      -2.983432   -2.310643    0.551587
C      -1.653420   -1.955333   -0.102920
H       0.967916    1.688918   -0.010519
H       0.469011   -0.391386   -0.953054
H       0.543320   -0.441016    0.809381
H      -2.355440    1.422988    0.192085
H      -5.713109    0.143733   -0.023644
H      -2.902170   -2.195373    1.641200
H      -3.281319   -3.339322    0.335828
H      -1.650937   -2.262808   -1.157816
H      -0.848176   -2.516504    0.387956
