18

O      -0.220612    0.124996   -0.238317
C      -0.058632    1.306077   -0.105227
C       1.309416    1.996875   -0.043360
C       1.495396    2.944676   -1.255869
N       1.621276    2.179517   -2.483963
C       0.402717    1.954369   -3.259663
C       1.436101    2.917584   -3.728150
C       1.391331    2.736050    1.210497
C       1.410450    3.356634    2.239980
H      -0.914599    2.012392   -0.009236
H       2.073673    1.214809   -0.092849
H       0.663750    3.672618   -1.280045
H       2.417509    3.513777   -1.102489
H       0.308460    0.972851   -3.713164
H      -0.529545    2.375906   -2.886259
H       1.192770    3.977096   -3.662804
H       2.113453    2.654948   -4.535375
H       1.449868    3.894145    3.155205
