23

C      -0.595236    1.470259   -0.133943
O      -0.517631    0.071874   -0.251386
C       0.458597   -0.346207   -1.187621
C       0.465742   -1.855112   -1.193782
C      -0.367946   -2.741619   -2.073015
C      -0.444547   -2.213543   -3.512589
C       1.113007   -2.354281   -3.632062
C       1.974937   -1.209008   -4.153299
C       1.168501   -2.779640   -2.154719
H       0.359154    1.908960    0.200743
H      -0.871705    1.948899   -1.087687
H      -1.365212    1.696080    0.608197
H       0.230620    0.073858   -2.178235
H       1.451616    0.039693   -0.896257
H       0.522635   -2.236181   -0.175259
H      -1.040149   -3.480277   -1.653349
H      -0.978651   -2.881543   -4.191436
H      -0.859513   -1.207303   -3.633456
H       1.320603   -3.241482   -4.240254
H       1.815695   -0.278979   -3.601372
H       3.039073   -1.459583   -4.076274
H       1.758837   -1.009427   -5.209178
H       1.845909   -3.536989   -1.774435
