18

C       0.060999    1.534750    0.208598
C      -0.161088    0.036901   -0.032655
C       0.589918   -0.473077   -1.249916
C       2.110164   -0.790953   -1.128749
O       1.787374   -1.966823   -0.295630
C       0.821869   -2.001347   -1.414167
C       2.022881   -1.728540   -2.375520
C       1.808756   -1.188166   -3.705762
N       1.640530   -0.760161   -4.766736
H       1.117136    1.755746    0.397000
H      -0.253197    2.130298   -0.655499
H      -0.508779    1.880002    1.076100
H       0.148259   -0.539931    0.843450
H      -1.231645   -0.154338   -0.179776
H       0.302480    0.052197   -2.166107
H       2.948420   -0.165209   -0.823890
H       0.111885   -2.827374   -1.449516
H       2.768891   -2.523575   -2.368045
