19

C      -0.021805    1.421119   -0.184766
C       1.295657    0.735022    0.024819
C       2.003433    0.767283    1.379883
C       1.148464    1.475263    2.454993
C       0.494366    0.100254    2.608503
C      -0.173016   -0.616644    1.356716
C       1.023566   -1.592738    1.470335
N       1.810607   -0.540897    2.189891
N       0.028018   -0.017183    0.035880
H      -0.418253    2.077378    0.579955
H      -0.312089    1.694075   -1.196308
H       1.930018    0.559473   -0.841222
H       3.052987    1.048364    1.278975
H       1.745135    1.674456    3.349169
H       0.580096    2.367143    2.200016
H       0.068262   -0.210350    3.567749
H      -1.200915   -0.973081    1.456526
H       0.864108   -2.422155    2.165507
H       1.430369   -1.969944    0.528865
