20

C      -0.031252    1.644752   -0.027741
C      -0.002559    0.110366    0.017607
C       0.702610   -0.528244   -1.150841
C       1.747848   -1.254328   -0.768843
C       1.935074   -1.230622    0.728147
C       3.283088   -0.636134    1.164289
N       0.777152   -0.422848    1.149324
C       0.294559   -0.397476    2.414903
O      -0.729440    0.161492    2.759780
H       0.981607    2.050701   -0.107797
H      -0.609598    1.985316   -0.892986
H      -0.502073    2.029136    0.879049
H      -1.038924   -0.243522    0.109054
H       0.370369   -0.373150   -2.170025
H       2.424207   -1.799304   -1.415747
H       1.853751   -2.245332    1.146279
H       3.404048    0.375196    0.766189
H       3.355932   -0.590569    2.255001
H       4.107983   -1.256042    0.797502
H       0.943044   -0.950741    3.124253
