17

O       0.273862    1.569131    0.146400
C       0.205049    0.166518    0.079793
C       0.609398   -0.356954   -1.295040
C       0.038271   -1.642454   -1.843796
C      -0.401735   -0.320741   -2.412804
C       1.122675   -0.441534    1.127391
O       2.005444    0.200654    1.654351
C       0.935524   -1.900167    1.554392
O      -0.032335   -2.558588    1.279759
H       1.082716    1.778248    0.636144
H      -0.823324   -0.158417    0.288102
H       1.635937   -0.115300   -1.558231
H       0.690739   -2.271091   -2.439342
H      -0.656962   -2.190017   -1.218188
H      -1.398690    0.033214   -2.173071
H      -0.053932   -0.036245   -3.399250
H       1.764241   -2.266861    2.195023
