14

C       0.088873   -1.224253    0.073496
C       0.049118   -0.024390    0.079631
C       0.013905    1.432271    0.033492
O      -0.627342    1.943856    1.206616
C      -0.067734    3.207277    1.551837
C       1.320212    3.218628    0.951332
O       2.064527    2.032929    1.254223
C       1.383433    2.105253    0.005643
H       0.125830   -2.285641    0.083945
H      -0.531774    1.750965   -0.872082
H      -0.655765    4.040928    1.134870
H      -0.074066    3.284318    2.643629
H       1.886881    4.139261    0.845760
H       1.989333    2.083515   -0.895124
