21

C       0.086965    1.543370   -0.007960
C       0.045248    0.017670    0.041869
O       0.619916   -0.450846   -1.170518
C       0.903110   -1.841239   -1.156947
C       2.001365   -2.171058   -0.138754
C       3.384343   -1.723961   -0.655669
O       4.425732   -1.917800    0.286877
C       1.648686   -1.516918    1.175381
C       0.748995   -0.538019    1.254132
H       1.122619    1.894698   -0.024385
H      -0.416741    1.900681   -0.909857
H      -0.414717    1.970647    0.865428
H      -1.015162   -0.299425    0.082393
H      -0.007133   -2.416894   -0.925541
H       1.212810   -2.095479   -2.176064
H       2.037994   -3.258939    0.007958
H       3.657642   -2.324373   -1.530513
H       3.316776   -0.674763   -0.976861
H       4.294690   -1.281039    0.996497
H       2.139218   -1.885532    2.072523
H       0.472208   -0.103347    2.211748
