17

C       0.332749    1.576849    0.199152
O       1.396440    1.404409   -0.763153
C       1.291935   -0.032629   -0.680876
C       2.448631   -0.653580    0.070013
O       2.787285   -0.048426    1.311566
C       2.192006   -1.363427    1.342632
C       0.812693   -1.443615    1.880827
C      -0.200137   -0.767515    1.332757
C      -0.041166    0.069606    0.108339
H       0.718614    1.877819    1.178714
H      -0.421296    2.292421   -0.146336
H       1.219629   -0.487967   -1.676247
H       3.306708   -0.952874   -0.532763
H       2.883976   -2.147162    1.645630
H       0.655591   -2.064634    2.757373
H      -1.194364   -0.836415    1.766716
H      -0.901855   -0.063760   -0.553262
