18

O      -0.337354    0.176251    0.394136
C      -0.067963    1.286913    0.019604
C       1.346214    1.824454   -0.135563
N       1.438297    2.733158   -1.253214
C       1.578340    2.204527   -2.627220
C       2.496583    3.402851   -2.956869
C       2.668285    3.548547   -1.415068
C       2.654513    4.863920   -0.799826
C       2.651929    5.952422   -0.289363
H      -0.852822    2.033202   -0.237835
H       1.562582    2.394398    0.780744
H       2.051246    0.975339   -0.175081
H       2.117953    1.244263   -2.665082
H       0.639648    2.104912   -3.179852
H       3.401304    3.207499   -3.531093
H       1.955025    4.247103   -3.383755
H       3.568296    3.001059   -1.086239
H       2.643965    6.915802    0.157692
