22

C       0.133195    1.433992   -0.296936
C       0.058471   -0.017234    0.181098
O       0.647907   -0.162134    1.475378
C      -1.360420   -0.550060    0.164928
C      -1.960487   -1.141075   -1.092964
C      -1.629643   -2.030106    0.077119
N      -0.503472   -2.909629   -0.063486
C      -0.124777   -3.674466    1.118489
C      -0.779749   -4.342466   -0.041479
H       1.164976    1.793844   -0.256823
H      -0.234584    1.531019   -1.323143
H      -0.480610    2.085425    0.338831
H       0.671995   -0.650326   -0.465893
H       0.151743    0.397068    2.083544
H      -2.046501    0.013693    0.796392
H      -3.000184   -0.938564   -1.324796
H      -1.309723   -1.231412   -1.956347
H      -2.468097   -2.410908    0.668310
H       0.942143   -3.777998    1.290748
H      -0.720543   -3.543168    2.019731
H      -1.814327   -4.658384    0.083670
H      -0.200769   -4.947383   -0.733717
