21

C      -0.022398    1.595017   -0.037527
C       1.498227    1.957860   -0.013708
C       2.192486    0.603830   -0.240359
C       2.185295   -0.331711    1.001281
C       2.449192   -1.674926    0.316762
O       1.604096   -1.625483   -0.848022
C       1.145464   -0.280462   -0.951748
C       0.003603    0.060812    0.043551
C       0.677245   -0.331163    1.393812
H      -0.582860    2.047203    0.785664
H      -0.486345    1.930742   -0.971476
H       1.753451    2.669965   -0.803432
H       1.801310    2.414925    0.933554
H       3.166832    0.661976   -0.729800
H       2.880669   -0.088492    1.806442
H       3.499148   -1.796658    0.011714
H       2.164538   -2.535719    0.932857
H       0.924171   -0.064297   -1.998889
H      -0.953326   -0.427443   -0.145597
H       0.361778   -1.314579    1.753128
H       0.447435    0.394886    2.179345
