18

C      -0.655312    0.709276    0.142517
O       0.693117    0.706185   -0.336630
C       1.027630   -0.283544   -1.182668
C       0.676649   -1.618859   -1.327127
N      -0.267052   -2.336992   -0.535320
C       1.480166   -2.072112   -2.412221
C       1.504101   -3.443579   -3.007075
N       2.262125   -1.109505   -2.887732
N       1.967766   -0.027828   -2.122399
H      -1.357335    0.839721   -0.689402
H      -0.892408   -0.221328    0.661614
H      -0.726818    1.561199    0.820394
H       0.196232   -2.932569    0.145158
H      -0.837283   -2.945741   -1.113478
H       0.540754   -3.708792   -3.459914
H       2.269321   -3.494363   -3.784413
H       1.725133   -4.207148   -2.252060
H       2.440314    0.846647   -2.272544
