21

C       0.138411   -0.509325    0.890327
O       1.158025   -0.673022   -0.084827
C       0.710000   -0.570821   -1.430065
C      -0.053383   -1.787190   -1.988545
O      -0.569534   -1.391322   -3.262901
C       0.693005   -3.105152   -2.127424
C       2.200174   -3.210300   -2.364927
C       1.585076   -3.786788   -1.114179
O       1.863971   -3.305155    0.156117
H      -0.404236    0.431682    0.728286
H      -0.576199   -1.341385    0.887681
H       0.633743   -0.475214    1.862892
H       0.051873    0.300643   -1.541630
H       1.606688   -0.389930   -2.032456
H      -0.945408   -1.955582   -1.372827
H       0.152866   -1.472615   -3.896285
H       0.089453   -3.795943   -2.712441
H       2.569056   -3.866263   -3.146746
H       2.793866   -2.311565   -2.226954
H       1.488080   -4.867923   -1.075744
H       1.820092   -2.333710    0.141095
