18

C       0.041329    1.343196   -0.115230
N      -0.181365   -0.072998    0.104701
C       0.563547   -0.694350    1.098609
C       1.247492   -0.167926    2.155181
O       1.791176   -1.163697    2.922177
C       1.462928   -2.349639    2.337581
C       0.714591   -2.120569    1.222739
O       0.172515   -2.967155    0.313198
C       0.427700   -4.339633    0.548659
H       1.097410    1.598147   -0.303596
H      -0.558312    1.676316   -0.965413
H      -0.286470    1.908913    0.764587
H      -0.217036   -0.623032   -0.741846
H       1.423028    0.837531    2.494687
H       1.826075   -3.239033    2.821049
H       1.506424   -4.547127    0.539461
H       0.013698   -4.656231    1.515439
H      -0.058021   -4.895500   -0.254668
