8

N       0.036053    1.360779   -0.124164
C      -0.025911   -0.020766    0.002006
N       1.219685   -0.623342    0.119632
O      -1.068229   -0.641746    0.008656
H       0.807494    1.834551    0.321449
H      -0.858258    1.803735    0.022438
H       1.999271   -0.173031   -0.336025
H       1.182043   -1.621479   -0.021092
