23

C      -0.017889    1.409936    0.309268
O      -0.145860    0.026890    0.551427
C      -1.326649   -0.581385    0.061486
C      -2.574527   -0.070724    0.779394
C      -1.492288   -0.646273   -1.490224
C      -1.825975   -2.155930   -1.359171
C      -1.209546   -2.142277    0.073264
C       0.226518   -2.651723    0.115015
O      -1.984046   -2.729150    1.103311
H       0.994857    1.691208    0.609726
H      -0.147814    1.656501   -0.755087
H      -0.730613    2.010270    0.891748
H      -2.748181    0.985422    0.551345
H      -3.459857   -0.630826    0.470796
H      -2.462878   -0.189633    1.859641
H      -2.254472   -0.003267   -1.935588
H      -0.539752   -0.474746   -1.997984
H      -2.901078   -2.343873   -1.315829
H      -1.373511   -2.834341   -2.086845
H       0.845768   -2.183819   -0.653607
H       0.678731   -2.441572    1.086802
H       0.237495   -3.735726   -0.059001
H      -1.766371   -3.665717    1.145859
