18

C       0.056737    1.494529   -0.018436
C      -0.120486   -0.002160   -0.208005
O       0.930058   -0.476556   -1.031777
C       0.895303   -1.851704   -1.252278
C      -0.156209   -2.468651   -2.263129
C       1.038508   -3.033367   -3.040073
O       1.807079   -1.909911   -3.472178
C       2.016379   -2.390123   -2.141874
H       1.019378    1.709255    0.453981
H       0.027366    2.007934   -0.983479
H      -0.740117    1.896063    0.614729
H      -0.101046   -0.522718    0.764778
H      -1.096465   -0.219954   -0.670818
H       0.860589   -2.406249   -0.300458
H      -0.805581   -3.216720   -1.803497
H      -0.747885   -1.745818   -2.828668
H       1.119123   -3.949286   -3.612884
H       3.028200   -2.663378   -1.865978
