20

C      -0.008431    1.531447   -0.009985
C       0.041644    0.024090    0.018601
C      -1.244859   -0.800220   -0.159652
N      -0.753284   -2.116588    0.364408
C      -0.464563   -1.695871    1.793468
C       0.655274   -0.831101    1.225452
C       0.776630   -1.903533    0.105623
C       0.991025   -0.797589   -0.916816
O       0.735110   -0.954966   -2.287660
H       0.982690    1.970536    0.146345
H      -0.376181    1.885394   -0.980006
H      -0.675827    1.926997    0.764117
H      -2.096962   -0.451329    0.429220
H      -1.564636   -0.871089   -1.203976
H      -1.312264   -1.246699    2.321198
H      -0.087104   -2.548220    2.365640
H       1.494429   -0.414540    1.783039
H       1.348225   -2.827831    0.168745
H       2.016888   -0.422688   -0.830759
H       0.005582   -1.572586   -2.395974
