13

C       0.012696    1.501682    0.018785
C       0.010144   -0.001336   -0.009799
C      -0.160025   -0.724638   -1.190466
N      -0.163433   -2.062129   -1.223782
C       0.004125   -2.659818   -0.070802
F       0.006257   -3.987449   -0.065782
C       0.177583   -1.973461    1.132318
N       0.179620   -0.647585    1.156085
H       0.959773    1.876139    0.419719
H      -0.132366    1.920904   -0.979759
H      -0.782487    1.874300    0.672055
H      -0.298151   -0.215909   -2.140799
H       0.313352   -2.511078    2.066166
