18

O      -0.094100    0.020314    0.663410
C      -0.069515    1.145912    0.211118
N       1.028342    1.773269   -0.288143
C       2.358813    1.177314   -0.297745
C       2.972648    1.076387   -1.686342
C       4.208441    1.576034   -1.725704
C       4.609627    2.162870   -0.410535
C       3.777558    3.354956    0.021028
C       3.409730    1.967277    0.491404
H      -0.968798    1.791485    0.153375
H       0.931522    2.726037   -0.603231
H       2.214615    0.183658    0.139148
H       2.424377    0.650399   -2.518292
H       4.850228    1.600772   -2.599170
H       5.627892    2.068040   -0.051971
H       4.195951    4.022155    0.767332
H       3.178753    3.848049   -0.738873
H       3.526882    1.745771    1.544847
