17

C       0.200708    1.380631    0.060389
N       0.015960   -0.053986    0.005709
C      -0.242390   -0.780566   -1.129556
C      -0.229160   -2.116128   -0.800268
C       0.045286   -2.210393    0.594562
C       0.135971   -3.455257    1.427675
O       1.040151   -3.326695    2.519603
C       0.196487   -0.918619    1.056462
H       1.246829    1.665112   -0.104116
H      -0.414981    1.859045   -0.704927
H      -0.112845    1.755729    1.037623
H      -0.403867   -0.283286   -2.073235
H      -0.413070   -2.937826   -1.476535
H      -0.829146   -3.699016    1.889122
H       0.400232   -4.310548    0.784694
H       1.867797   -2.995739    2.154240
H       0.413447   -0.551743    2.046928
