14

O       0.216728    1.138145   -0.674412
C      -0.032994    0.108559    0.258689
C      -1.384313   -0.509750    0.061741
C      -2.251537   -0.511608   -0.982308
C      -3.351936   -1.286102   -0.502095
N      -3.148037   -1.707737    0.734534
O      -1.902419   -1.208921    1.087760
C      -4.547140   -1.608774   -1.193742
C      -5.546825   -1.861513   -1.811902
H      -0.416214    1.845844   -0.511747
H       0.747971   -0.643334    0.096941
H       0.059500    0.444441    1.302238
H      -2.133860   -0.052796   -1.948172
H      -6.434714   -2.093207   -2.346890
