16

C      -0.005497    1.528704    0.136570
C       0.039054    0.034211   -0.073113
C       0.687248   -0.632445   -1.230317
C       1.675458    0.151634   -2.076205
O       2.688022    0.573092   -1.156002
C       2.468648    0.023287    0.087610
N       3.217045    0.185386    1.087427
N       1.288545   -0.766466    0.110367
H       0.821290    2.052268   -0.347865
H      -0.944262    1.925669   -0.263374
H       0.030121    1.761543    1.205187
H      -0.809131   -0.492567    0.358320
H       0.255798   -1.531262   -1.659937
H       2.127502   -0.485189   -2.844254
H       1.250762    1.037346   -2.560590
H       4.009959    0.776069    0.837835
