23

C      -0.073516    1.431048    0.017030
O      -0.003974    0.026614    0.018483
C      -1.273182   -0.588695    0.003056
C      -1.093161   -2.106120    0.045034
C      -0.363641   -2.549566    1.316332
C      -2.473435   -2.790700   -0.101648
C      -2.396769   -4.241720   -0.233256
C      -2.314734   -5.437617   -0.349960
C      -2.228566   -6.884511   -0.492530
H       0.951169    1.810803    0.026196
H      -0.586293    1.815195   -0.879560
H      -0.603262    1.816058    0.903221
H      -1.872479   -0.252900    0.869592
H      -1.827477   -0.293240   -0.905395
H      -0.485691   -2.385020   -0.824766
H       0.605629   -2.052681    1.393015
H      -0.947950   -2.291446    2.208594
H      -0.209506   -3.631709    1.317215
H      -3.094660   -2.533164    0.768291
H      -2.991966   -2.375484   -0.976602
H      -3.174254   -7.306180   -0.851288
H      -1.448770   -7.169743   -1.207547
H      -1.993338   -7.367905    0.462293
