13

O      -0.068103    1.270865   -0.075756
C       0.020810   -0.069538   -0.090088
C       0.288322   -0.979270   -1.095341
O       0.585024   -0.617722   -2.395923
C      -0.269291   -1.047275   -3.371769
O      -0.080144   -0.810368   -4.522044
C       0.259408   -2.242741   -0.467433
N      -0.018344   -2.132061    0.825668
N      -0.153086   -0.795063    1.032498
H       0.158949    1.595787   -0.955916
H      -1.116585   -1.620260   -2.954373
H       0.429983   -3.213757   -0.908194
H      -0.357558   -0.446972    1.953986
