23

C      -0.466489    1.492442    0.396000
C       0.075173    0.108573    0.028325
C       0.737938   -0.608791    1.208518
C       1.281362   -1.998531    0.846652
C       1.931830   -2.673616    2.030715
O       1.070522   -3.206741    3.047027
C       1.918934   -4.116797    2.323544
C       1.196617   -5.169070    1.519749
O       0.602682   -6.132407    2.375221
H       0.334545    2.149278    0.753107
H      -0.936904    1.979029   -0.464060
H      -1.216207    1.424791    1.192017
H      -0.741962   -0.513799   -0.360103
H       0.799136    0.203119   -0.792188
H       1.556316    0.011767    1.599592
H       0.016811   -0.715012    2.028834
H       0.467995   -2.618353    0.457450
H       2.026748   -1.908489    0.044469
H       2.776732   -2.115011    2.442927
H       2.737898   -4.514801    2.926271
H       0.450291   -4.708154    0.859199
H       1.910637   -5.714131    0.892397
H       0.028662   -5.646712    2.978638
