16

C      -0.071521    1.509459   -0.082587
C       0.048249    0.003359   -0.027037
C       1.377321   -0.674408   -0.203023
C       0.718582   -0.659506    1.151656
C       1.173173   -0.112505    2.497532
O       0.633196   -1.315067    3.141656
C       0.218388   -1.837116    1.932063
O      -0.334479   -2.871053    1.731278
H       0.821220    1.996150    0.324136
H      -0.192123    1.850012   -1.116151
H      -0.936307    1.862703    0.488803
H      -0.810222   -0.543307   -0.409029
H       1.417193   -1.627687   -0.718755
H       2.255775   -0.048437   -0.326732
H       2.251000   -0.039342    2.660467
H       0.664336    0.782509    2.863661
