17

C       0.123860    1.311243   -0.293155
O      -0.054923   -0.045267    0.115851
C      -1.326266   -0.487945    0.188304
C      -1.372770   -1.927422    0.635202
N      -2.292324    0.283882   -0.103677
C      -3.654802   -0.238748   -0.010208
C      -4.160410   -0.302545    1.363318
C      -4.563136   -0.355284    2.494888
H       1.201515    1.480647   -0.284620
H      -0.283817    1.472230   -1.294961
H      -0.380397    1.993958    0.396046
H      -0.369828   -2.286701    0.864228
H      -2.010072   -2.026595    1.517986
H      -1.801327   -2.557083   -0.151941
H      -4.303724    0.426255   -0.591475
H      -3.751348   -1.235459   -0.468873
H      -4.925720   -0.394057    3.492120
