16

O      -0.881831    1.084189    0.235795
C       0.254492    0.737172    0.047270
C       1.441390    1.686506    0.040031
C       1.298478    2.852557    1.022535
C       2.622398    3.555236    1.162882
C       3.757387    2.999216    0.746511
C       3.800773    1.618472    0.153171
O       2.587480    0.903107    0.316642
H       0.531996   -0.321166   -0.151787
H       1.506875    2.094803   -0.987671
H       0.522934    3.536487    0.662165
H       0.946599    2.481575    1.994100
H       2.624315    4.543940    1.613203
H       4.705987    3.523982    0.820096
H       4.070991    1.673347   -0.917665
H       4.573145    1.013203    0.642055
