19

C       0.758937    1.401924    0.156736
C       0.148019    0.023874    0.025757
C       0.766816   -0.925499   -0.936697
N       0.894795   -1.149468    0.517703
C      -1.363291   -0.138984    0.286685
O      -1.701522   -1.513038    0.330865
C      -1.839268    0.613649    1.551240
N      -2.402247   -0.188936    2.487896
O      -1.717292    1.820721    1.665647
H       1.814741    1.371054   -0.133251
H       0.246252    2.115770   -0.494570
H       0.673933    1.786577    1.173985
H       0.159057   -1.662466   -1.451769
H       1.641124   -0.583193   -1.483122
H       1.813683   -0.890816    0.863306
H      -1.909562    0.318541   -0.547880
H      -0.896721   -1.944071    0.676331
H      -2.610286   -1.141625    2.237214
H      -2.845642    0.240757    3.282708
