21

O      -0.165084    1.537805    0.243411
C       0.041890    0.140089    0.083384
C      -1.326862   -0.507573   -0.053547
C      -2.090942   -0.168028   -1.371271
C      -2.470350   -1.580943   -1.867419
C      -1.228698   -2.280357   -2.467721
C      -0.439261   -2.642547   -1.172765
C      -1.369695   -2.057127   -0.086649
O      -2.670049   -2.302661   -0.639427
H       0.695003    1.965069    0.293846
H       0.656302   -0.062259   -0.807838
H       0.573964   -0.282700    0.952249
H      -1.920380   -0.178511    0.804796
H      -2.980138    0.433422   -1.172870
H      -1.470607    0.380483   -2.085746
H      -3.374678   -1.638609   -2.473475
H      -1.516930   -3.176874   -3.021345
H      -0.669932   -1.629897   -3.145862
H      -0.360882   -3.724939   -1.047396
H       0.573494   -2.233669   -1.151870
H      -1.293057   -2.533738    0.891537
