20

C      -0.023241    1.248959   -1.311683
C       0.226019   -0.242176   -1.519523
C       1.295018   -0.800313   -0.602789
O       1.922641   -0.129515    0.182573
C       1.570861   -2.311081   -0.656850
O       0.882745   -2.992976   -1.693033
C       1.573340   -3.247134   -2.829200
N       0.986561   -3.683056   -3.849543
C       1.797223   -3.977156   -5.013000
H      -0.347828    1.452522   -0.287893
H       0.889229    1.825812   -1.482454
H      -0.794890    1.608278   -1.997614
H      -0.684783   -0.837961   -1.373569
H       0.521459   -0.461492   -2.554797
H       2.655822   -2.461028   -0.719811
H       1.234653   -2.742717    0.291807
H       2.655727   -3.054921   -2.750673
H       2.869827   -3.760782   -4.879801
H       1.690683   -5.035686   -5.275550
H       1.432255   -3.399182   -5.869277
