16

C      -0.114637    1.477657    0.020015
C      -0.022080   -0.009507   -0.012488
N      -0.092709   -0.735937   -1.099481
C       0.031914   -2.052336   -0.699063
C       0.166056   -2.134909    0.650125
N       0.133627   -0.817731    1.111815
C       0.215255   -0.373953    2.455124
N       0.013792   -1.369423    3.376713
O       0.472064    0.771322    2.745118
H       0.808178    1.927943    0.393515
H      -0.306870    1.818554   -0.998202
H      -0.917332    1.821464    0.678634
H       0.024457   -2.859493   -1.415677
H       0.349499   -2.965259    1.309477
H      -0.563950   -2.159397    3.140461
H      -0.048551   -1.039354    4.327138
