18

N      -0.057148   -1.163972   -0.190779
C      -0.003561   -0.016311   -0.066733
C       0.056977    1.439999    0.103239
C      -0.795267    1.871708    1.330809
C      -1.262280    3.327394    1.272136
C      -0.218994    4.399828    1.144658
C       1.087860    4.302626    0.855962
C       1.895042    3.132077    0.523974
C       1.499675    1.898682    0.186350
H      -0.403233    1.877136   -0.795587
H      -1.678695    1.229505    1.393159
H      -0.206803    1.694716    2.235658
H      -1.989088    3.449992    0.454740
H      -1.841846    3.527293    2.184194
H      -0.601409    5.402198    1.329536
H       1.649581    5.234280    0.858668
H       2.967638    3.311855    0.520878
H       2.251778    1.152211   -0.046380
