19

O      -0.083029    1.442216   -0.044871
C      -0.005128    0.026310   -0.009473
C      -1.432967   -0.510449    0.067425
C      -1.456910   -2.045278    0.063010
C      -0.757735   -2.625018   -1.169493
O      -1.521860   -2.241703   -2.313460
C       0.662050   -2.048478   -1.286399
O       1.636520   -2.756945   -1.389236
C       0.722558   -0.530699   -1.253559
H       0.813344    1.793195   -0.058406
H       0.545131   -0.300477    0.889817
H      -1.912529   -0.123098    0.971239
H      -1.995648   -0.126886   -0.789626
H      -0.957323   -2.436905    0.958178
H      -2.487797   -2.412250    0.081609
H      -0.673819   -3.716565   -1.094799
H      -1.137541   -2.670523   -3.085456
H       0.204828   -0.140184   -2.137455
H       1.770114   -0.217426   -1.287009
