21

C       0.205863    1.293305   -0.165592
O       0.037239   -0.092457    0.005799
C       0.742814   -0.599065    1.115277
C       0.568609   -2.102330    1.151198
O       1.401937   -2.817603    0.200825
C       1.868501   -3.724800    1.220234
C       3.242400   -3.320053    1.798925
C       2.516003   -2.472750    2.892767
C       1.134509   -2.918654    2.329969
H       1.261858    1.560147   -0.330651
H      -0.373441    1.587338   -1.044164
H      -0.157414    1.861767    0.706225
H       1.811650   -0.343800    1.044285
H       0.355865   -0.166437    2.056763
H      -0.490618   -2.325150    0.960953
H       1.683330   -4.771436    0.963259
H       3.814648   -4.157559    2.207463
H       3.868382   -2.773458    1.090536
H       2.690884   -2.841874    3.905697
H       2.716776   -1.399091    2.890832
H       0.415168   -3.336474    3.033232
