13

O       0.057157   -0.051098    0.084700
C      -0.025232    1.129101   -0.034517
O       1.089565    1.921561    0.145702
C       0.990896    3.281521    0.086268
N      -0.196211    3.864746    0.131412
C      -0.191926    5.201633    0.083125
N       0.868127    5.997511    0.008348
C       2.055430    5.374701   -0.029144
C       2.184878    3.997071    0.003134
H      -0.919777    1.706965   -0.291960
H      -1.166556    5.681883    0.114966
H       2.934634    6.011103   -0.088888
H       3.141035    3.492160   -0.031242
