13

O       0.015478   -0.053476   -0.005915
C       0.020059    1.151425    0.093620
C       1.252242    1.956811    0.056047
C       1.328355    3.297984    0.127757
C       2.752659    3.746478   -0.018191
O       3.150826    4.878250   -0.120965
C       3.584094    2.466395   -0.076842
O       3.427916    1.678358    1.115436
C       2.629707    1.353387   -0.035631
H      -0.918248    1.732727    0.212093
H       0.507438    3.992833    0.257462
H       4.556997    2.451058   -0.556175
H       2.792720    0.379251   -0.480315
