15

C      -0.753561    1.071988    0.366866
N       0.025380   -0.148425    0.170903
C       1.273273   -0.066609   -0.541732
C       1.272853   -0.371887    0.931443
C       1.824545    0.663644    1.859036
O       1.860373    1.854317    1.607514
C       2.319159    0.144211    3.123208
C       2.739463   -0.299046    4.160726
H      -0.149362    1.973635    0.516231
H      -1.383520    1.203004   -0.518184
H      -1.408489    0.936694    1.232888
H       1.487888   -0.873198   -1.238227
H       1.648810    0.917296   -0.817984
H       1.399979   -1.396896    1.267314
H       3.112600   -0.672791    5.083407
