18

O      -0.627751    0.739039    0.594809
C       0.142143    1.030921   -0.287016
C       1.294040    1.985572   -0.156025
C       1.255227    3.321286   -0.977203
C      -0.004900    4.167387   -0.699194
N       0.524468    4.646539    0.622659
C       0.347118    3.572821    1.662667
C       1.566191    2.777926    1.148639
C       1.874592    4.032339    0.268615
H       0.027208    0.596524   -1.309077
H       2.202598    1.446838   -0.457401
H       1.676666    3.310427   -1.982564
H      -0.089194    5.013378   -1.389171
H      -0.975279    3.661018   -0.649503
H       0.531492    4.000612    2.653142
H      -0.626175    3.078142    1.665378
H       2.245442    2.329841    1.873605
H       2.776246    4.643514    0.285873
