20

C       0.427208    1.599647   -0.146221
C      -0.015270    0.165085    0.124599
C       0.625328   -0.899501   -0.818076
C       1.613931   -1.287735    0.315411
C       0.706857   -0.519528    1.323778
O       1.341126    0.374341    2.209216
C      -0.218608   -1.435542    2.115472
O       0.590944   -2.083049    3.095854
H       1.515341    1.673779   -0.233291
H      -0.014138    1.961004   -1.081291
H       0.119034    2.267017    0.663156
H      -1.109556    0.127946    0.187242
H      -0.063432   -1.707214   -1.079604
H       1.066571   -0.514146   -1.740643
H       1.785528   -2.349079    0.509001
H       2.578414   -0.785029    0.216845
H       1.585543   -0.151502    2.982030
H      -1.000214   -0.824948    2.591382
H      -0.704249   -2.166550    1.452404
H       0.017263   -2.499638    3.744525
