19

O       0.074384    1.292605   -0.055220
C       0.077037   -0.088831    0.114722
C      -0.558353   -0.700429    1.360952
C      -1.246318   -0.779750    0.034311
O      -2.380828    0.054876   -0.252091
C      -2.910064   -0.936144   -1.176917
C      -1.778224   -1.897907   -0.825442
C      -1.042305   -2.870806   -1.690485
C      -1.861163   -3.359717   -0.514972
H      -0.813847    1.521984   -0.365605
H       0.960937   -0.571687   -0.296191
H      -0.120502   -1.604695    1.773886
H      -0.979789   -0.012444    2.087012
H      -3.920683   -1.246299   -0.889780
H      -2.915810   -0.562188   -2.207687
H      -1.421039   -3.051345   -2.691563
H       0.039852   -2.905256   -1.612495
H      -1.334287   -3.722860    0.361779
H      -2.796241   -3.872369   -0.717635
