21

C      -0.306350    1.463506   -0.270556
C       0.021066   -0.007830   -0.150487
C       1.401285   -0.639763   -0.350531
C       2.654187    0.218193   -0.298415
O       2.534590    1.343057   -1.162391
C       2.755427    0.578616    1.204401
O       1.475876    0.360705    1.790899
C       0.768469   -0.594071    1.018763
C       0.290549   -1.780160    1.810848
H      -0.304044    1.786961   -1.314925
H      -1.302628    1.653339    0.144856
H       0.408980    2.079866    0.273502
H      -0.765274   -0.658273   -0.530385
H       1.447220   -1.562559   -0.917298
H       3.525874   -0.382420   -0.596667
H       3.363611    1.831192   -1.131671
H       3.507327   -0.057066    1.698036
H       3.033209    1.627603    1.355530
H      -0.388536   -1.461790    2.608939
H      -0.248497   -2.481584    1.167188
H       1.129847   -2.310282    2.274098
