16

C      -0.097451    1.532615   -0.002424
C      -0.027109    0.009938    0.094115
C       0.776021   -0.526873    1.246549
N       1.329694    0.316741    2.047261
O       2.077911   -0.150250    3.121436
N       2.259584   -1.486722    3.376138
C       1.709229   -2.330334    2.580125
C       0.902344   -1.979689    1.421054
N       0.336553   -2.789365    0.603201
H       0.897169    1.972012   -0.113627
H      -0.700170    1.820861   -0.867851
H      -0.548675    1.969053    0.892344
H      -1.029322   -0.430919    0.167890
H       0.391357   -0.428114   -0.820853
H       1.884731   -3.375599    2.827432
H       0.523591   -3.760328    0.867490
