21

C       0.024685    1.536763    0.171057
C      -0.034566    0.018324   -0.014108
O       0.782280   -0.654979    0.939102
C      -1.455444   -0.497123   -0.001156
C      -2.170839   -0.972606    1.235292
C      -1.956057   -1.924879    0.082485
C      -2.890579   -1.678908   -1.133904
C      -3.859391   -0.543253   -0.951477
C      -2.408159   -0.240137   -1.212079
H       1.059257    1.888163    0.123410
H      -0.554667    2.051940   -0.601570
H      -0.398022    1.820358    1.142976
H       0.411048   -0.235695   -0.985738
H       0.591306   -0.274601    1.803126
H      -1.511899   -1.179148    2.073398
H      -3.148320   -0.612164    1.535761
H      -1.364612   -2.823673    0.199677
H      -2.991879   -2.393176   -1.940782
H      -4.502517   -0.371287   -1.810094
H      -4.346095   -0.329199   -0.006490
H      -2.086196    0.312134   -2.086552
