23

C      -0.109879    1.604323    0.095283
C      -0.087455    0.073930    0.039359
C       0.787014   -0.464163   -1.102101
C       0.760547   -1.986182   -1.244826
O       1.222964   -2.646510   -0.084859
C      -0.532017   -2.547060   -1.901083
O       0.159587   -2.763503   -3.145528
C       1.447116   -2.567410   -2.510086
C       2.409007   -1.762318   -3.356136
H       0.898539    2.009145    0.233609
H      -0.510656    2.025666   -0.832923
H      -0.730567    1.964167    0.921465
H       0.279897   -0.305263    1.003071
H      -1.113323   -0.301686   -0.071373
H       0.450548   -0.020748   -2.046797
H       1.823979   -0.139307   -0.949622
H       0.746784   -2.301075    0.676980
H      -0.862983   -3.486575   -1.438554
H      -1.386846   -1.871204   -2.021411
H       1.895265   -3.536894   -2.247586
H       1.998608   -0.784673   -3.621116
H       3.355910   -1.618099   -2.825311
H       2.621989   -2.302418   -4.284070
