21

C      -0.681933    1.522936   -0.009020
C      -0.090925    0.130894   -0.024613
C      -1.088573   -1.065369    0.096513
C      -0.338685   -1.578822    1.363442
C       0.740245   -0.491862    1.161683
C       1.866509   -0.898614    0.150489
C       1.090935   -0.149278   -0.985578
C       3.215124   -0.315770    0.462150
O       4.238933   -0.940833    0.571290
H       0.096191    2.288974    0.085377
H      -1.234183    1.723548   -0.935759
H      -1.381208    1.652084    0.824925
H      -2.123041   -0.763592    0.279440
H      -1.082429   -1.748031   -0.758117
H      -0.914683   -1.430083    2.280354
H       0.011522   -2.614513    1.346107
H       1.062776    0.081757    2.033857
H       1.974921   -1.976581    0.012189
H       0.876710   -0.734463   -1.883942
H       1.602993    0.770335   -1.290796
H       3.206835    0.794030    0.596735
