17

N      -0.069092   -1.166638   -0.112150
C      -0.022443   -0.013915   -0.048816
C      -0.005309    1.446568    0.043432
C      -0.500053    2.003992    1.392202
C       0.742265    2.117632    2.246440
C       1.885691    1.604938    1.365051
N       1.379461    2.012270    0.020896
C       1.070186    3.451459    0.260908
C       0.207957    3.334530    1.522700
H      -0.568414    1.847272   -0.805381
H      -1.485410    1.803380    1.786984
H       0.717198    2.010504    3.321502
H       2.843583    2.094249    1.558449
H       2.024560    0.522255    1.407511
H       1.998809    4.007423    0.413048
H       0.542062    3.875107   -0.598072
H      -0.235060    4.180316    2.029682
