15

N       0.053965    1.350641    0.161040
C      -0.031607   -0.026020    0.028171
C      -1.164207   -0.839460   -0.047831
C      -0.698342   -2.171402   -0.079470
O      -1.430000   -3.307134   -0.159331
C       0.694679   -2.161080   -0.028502
N       1.063752   -0.813394    0.035085
C       1.693026   -3.179465   -0.029622
O       2.896018   -2.945626    0.024425
H       0.863883    1.767490   -0.278484
H      -0.789672    1.832136   -0.114743
H      -2.188550   -0.500090   -0.081992
H      -2.364068   -3.077476   -0.172172
H       2.029007   -0.543857    0.134895
H       1.303621   -4.215784   -0.081105
