12

C       0.022169    1.461743    0.305725
C       1.309296    0.761651   -0.090722
O       2.111009    0.217284    0.928766
C       1.255339   -0.574727    1.733695
O       0.145031   -0.962709    0.943727
C       0.030254   -0.006038   -0.080988
H      -0.139689    1.744523    1.339819
H      -0.396365    2.149840   -0.421507
H       1.881454    1.040296   -0.965903
H       1.793581   -1.467243    2.068431
H       0.914354    0.004464    2.607368
H      -0.494493   -0.385764   -0.947822
