17

O       0.474706    0.887584    0.800896
C      -0.076039   -0.148510    0.036062
C      -1.556351    0.024344   -0.308580
C      -1.640502   -0.734323   -1.623324
C      -2.355773   -2.038225   -1.816632
C      -2.814832   -0.779544   -2.536559
O      -0.356775   -0.616288   -2.258904
C       0.562792   -0.224374   -1.351714
O       1.699951    0.049072   -1.617658
H       1.377665    1.010493    0.474811
H       0.083370   -1.129952    0.516500
H      -2.238582   -0.366458    0.447493
H      -1.760765    1.090570   -0.454449
H      -1.854336   -2.793055   -2.411291
H      -2.957657   -2.420833   -0.999328
H      -3.729590   -0.294952   -2.212449
H      -2.614641   -0.713925   -3.599769
