13

N      -0.198692    1.344541   -0.115238
C       0.031301    0.031767    0.108861
O       1.045144   -0.462807    0.534566
O      -1.109496   -0.685348   -0.194640
C      -0.992060   -2.096327   -0.052175
C      -2.061248   -2.570116    0.945751
O      -2.609277   -3.631357    0.893770
C      -1.098863   -2.752337   -1.356876
N      -1.180356   -3.262067   -2.389136
H       0.581337    1.973487   -0.040580
H      -1.022475    1.635516   -0.612367
H      -0.007624   -2.316458    0.389024
H      -2.250037   -1.817141    1.739697
