18

C      -0.198939    0.992500   -0.293415
O      -0.050407   -0.388581   -0.052803
C       0.714600   -0.675732    1.088304
C       0.833078   -2.189338    1.228674
O      -0.415397   -2.826948    1.341815
C      -0.766773   -3.316076    0.053173
C       0.548398   -3.376041   -0.690668
N       0.750840   -3.918175   -1.808182
O       1.480330   -2.745509    0.083983
H       0.774133    1.483360   -0.447574
H      -0.798525    1.101405   -1.199617
H      -0.713245    1.496448    0.539202
H       1.726862   -0.243937    1.014958
H       0.241868   -0.278980    2.002106
H       1.432870   -2.429935    2.114473
H      -1.220786   -4.304518    0.153601
H      -1.462834   -2.641547   -0.457413
H       1.722795   -3.806604   -2.098918
