14

N       0.011756    1.337588    0.136449
C      -0.016470   -0.038825    0.024105
N      -1.100507   -0.769507    0.010693
C      -0.609144   -2.066929    0.004859
N      -1.137459   -3.284884   -0.021639
N      -0.033430   -4.075389   -0.044404
C       1.167877   -3.407089   -0.037962
C       0.806055   -2.084709   -0.000812
N       1.186074   -0.746499   -0.034626
H       0.675091    1.797759   -0.472978
H      -0.916363    1.726897    0.038244
H      -0.161271   -5.071737   -0.029294
H       2.107326   -3.933827   -0.048415
H       2.060763   -0.368002    0.287766
