16

O       0.403326    1.362728   -0.149037
C       0.128544    0.016210   -0.111181
C       0.389912   -0.787362   -1.400432
C      -0.769539   -1.748637   -1.062916
N      -0.338120   -2.732186   -0.017201
C      -0.669857   -1.742051    1.050996
C      -1.309446   -0.752071    0.012475
C       0.443193   -0.696364    1.200301
O       1.016838   -0.246470    2.158068
H       0.674964    1.621474    0.743678
H       0.121687   -0.149154   -2.248314
H       1.382586   -1.215917   -1.555394
H      -1.348666   -2.163631   -1.887547
H      -1.016815   -3.487023    0.028521
H      -1.125372   -2.119825    1.965778
H      -2.276954   -0.264502    0.087942
