17

C      -0.383510    1.430467    0.389563
C      -0.165616   -0.054828    0.490394
O       0.978794   -0.597523   -0.175786
C       0.943913   -0.664574    1.262003
C       1.908873    0.147575    1.963752
C       2.720466    0.778138    2.587623
C       0.795675   -2.054554    1.825933
C      -0.197514   -2.354030    2.864050
O      -0.396941   -2.758806    1.506540
H       0.543179    1.978795    0.569795
H      -0.754420    1.685604   -0.608292
H      -1.133380    1.754008    1.119256
H      -1.051848   -0.680988    0.392169
H       3.438068    1.346395    3.126631
H       1.704767   -2.654279    1.781254
H      -0.012865   -3.160269    3.571218
H      -0.856581   -1.561777    3.215056
