15

C      -0.013055    1.519697   -0.001876
C       0.018202    0.016254   -0.026602
C       0.041724   -0.730934   -1.199167
C       0.070133   -2.126287   -1.141015
O       0.094260   -2.926216   -2.243252
C       0.074035   -2.733809    0.112358
N       0.051696   -2.031016    1.247967
C       0.025355   -0.725854    1.158585
F       0.003408   -0.048870    2.313273
H       0.853104    1.922682    0.532981
H      -0.013706    1.929873   -1.014556
H      -0.903312    1.886403    0.519364
H       0.037885   -0.222806   -2.160954
H       0.088439   -2.379823   -3.035726
H       0.095870   -3.816554    0.189066
