19

C      -0.101611    1.470741   -0.397963
C      -0.104857   -0.001781   -0.130380
O       0.308200   -0.872657   -1.237524
C       0.003712   -1.786134   -0.151741
C       0.600174   -0.882310    0.968362
C      -0.683357   -1.024920    1.819229
C      -1.071424    0.053037    2.810039
O      -2.417583   -0.192175    3.196997
C      -1.225832   -0.986953    0.371260
H       0.903868    1.798307   -0.680429
H      -0.781580    1.701685   -1.223924
H      -0.418608    2.038529    0.480044
H       0.119345   -2.857657   -0.310285
H       1.645846   -0.830615    1.275324
H      -0.792865   -2.004653    2.298549
H      -0.393965    0.010959    3.679012
H      -0.964353    1.053505    2.364750
H      -2.664305    0.459053    3.860188
H      -2.250940   -1.051738    0.007708
