20

C      -0.002191    1.265811    0.102698
O       0.188072   -0.127615   -0.003106
C       0.671084   -0.537369   -1.268159
C       0.689241   -2.061228   -1.247885
O      -0.604053   -2.558170   -0.928607
C       1.073295   -2.659165   -2.596510
N       1.017928   -4.107252   -2.543281
C       2.039466   -4.905601   -2.944175
O       3.083570   -4.520630   -3.429401
H       0.942272    1.813630   -0.033120
H      -0.725772    1.633928   -0.640492
H      -0.387098    1.467304    1.104972
H       0.002772   -0.177814   -2.067818
H       1.679575   -0.134750   -1.454474
H       1.418038   -2.389368   -0.489532
H      -0.908626   -2.038583   -0.174632
H       0.387749   -2.279258   -3.365843
H       2.092947   -2.385577   -2.876369
H       0.204269   -4.516874   -2.111534
H       1.809267   -5.976987   -2.779588
