16

O       0.068363   -0.009628   -0.172462
C       0.098720    1.175904   -0.286211
O       1.019494    1.941064    0.356742
C       0.930937    3.320495    0.176470
C       1.081389    4.020290   -1.142920
C       2.033459    4.318058   -0.001638
N       1.535287    5.182269    1.144624
C       0.146396    5.626701    0.901117
C       0.384972    4.225054    1.301125
H      -0.585606    1.775761   -0.912724
H       1.560070    3.401291   -1.896665
H       0.354328    4.714225   -1.549556
H       3.103591    4.193947   -0.096156
H      -0.198004    6.303269    1.678367
H      -0.190411    5.893597   -0.093529
H       0.131276    3.818740    2.274804
