11

C       0.024589   -1.169859   -0.003766
C      -0.001796    0.031695    0.003010
C      -0.034213    1.460108    0.011074
N      -1.239896    2.058588    0.030265
C      -1.201603    3.381092    0.036826
C       0.015719    4.061732    0.024322
N       1.175625    3.407318    0.005443
N       1.159164    2.082684   -0.001420
H       0.049829   -2.232110   -0.009778
H      -2.151357    3.910787    0.052260
H       0.074994    5.145003    0.029330
