19

C      -0.297876    1.563063    0.266810
C      -0.192624    0.103829   -0.025453
C      -0.455670   -0.616594   -1.164905
C      -0.205058   -1.999877   -0.895995
C      -0.376340   -3.173788   -1.808305
O       0.734884   -4.083044   -1.758694
C       0.223927   -2.076331    0.415055
N       0.694016   -3.162871    1.175333
N       0.228661   -0.804799    0.930461
H       0.663878    2.003278    0.561883
H      -0.640521    2.093739   -0.624695
H      -1.011963    1.776978    1.072895
H      -0.815395   -0.203030   -2.096443
H      -1.238553   -3.791962   -1.528403
H      -0.553235   -2.827696   -2.837456
H       1.525785   -3.554565   -1.915099
H       0.045858   -3.440058    1.907104
H       0.838399   -3.953137    0.554139
H       0.600698   -0.571489    1.835665
