16

O      -0.096967    1.308426    0.290360
N      -0.005321   -0.059723    0.159744
C      -1.131096   -0.636242   -0.036005
C      -1.236392   -2.139903   -0.197014
C      -2.721227   -2.443331    0.122187
C      -3.458194   -1.217173   -0.433616
O      -4.747998   -1.012073    0.063360
C      -2.516245   -0.062661   -0.087538
O      -2.904147    1.053886    0.164435
H       0.821360    1.566093    0.435173
H      -1.004335   -2.423267   -1.231581
H      -0.534830   -2.671988    0.447870
H      -3.067139   -3.383295   -0.311259
H      -2.882968   -2.486010    1.204643
H      -3.465900   -1.289026   -1.539800
H      -4.818330   -0.058784    0.224843
