18

C      -0.093440    1.532500    0.000230
C       0.070053    0.001220   -0.071595
C       0.888859   -0.417236   -1.307142
C       0.669150   -0.542821    1.184222
C       0.178741   -1.315659    2.198104
N      -1.084348   -1.894388    2.361975
N       1.209938   -1.516180    3.085738
N       2.258502   -0.933777    2.688576
O       1.952107   -0.272779    1.475203
H       0.881114    2.020613    0.096687
H      -0.573750    1.905443   -0.909476
H      -0.705552    1.830004    0.856891
H      -0.925706   -0.452446   -0.146351
H       1.902171   -0.008461   -1.256957
H       0.965334   -1.505519   -1.381434
H       0.413344   -0.042980   -2.218577
H      -1.822298   -1.209466    2.474658
H      -1.085224   -2.508876    3.167326
