14

C      -0.027169    1.472686    0.010733
C      -0.003580    0.018328    0.002982
C       0.021700   -1.187783   -0.003493
C       0.025173   -2.602078   -0.011189
C       1.114964   -3.429692   -0.022033
O       0.733645   -4.728759   -0.026918
C      -0.627758   -4.745416   -0.018975
C      -1.119832   -3.483796   -0.008956
H       0.988020    1.884539    0.003090
H      -0.551471    1.868697   -0.866482
H      -0.534457    1.859571    0.901916
H       2.175259   -3.241636   -0.027265
H      -1.082560   -5.721904   -0.021641
H      -2.155956   -3.186628   -0.001047
