18

O       0.050848    1.418653   -0.005469
C       0.028434    0.008190    0.028837
C       0.835026   -0.572563    1.194562
C       0.633458   -2.057919    1.345482
C      -0.359948   -2.730395    0.766503
C      -1.411994   -2.091546   -0.101487
C      -1.421037   -0.549780    0.023207
C      -2.118594   -0.097985    1.230875
N      -2.634154    0.297536    2.187627
H      -0.310083    1.745194    0.828012
H       0.483805   -0.310317   -0.915459
H       1.894792   -0.338959    1.043451
H       0.544913   -0.062422    2.125837
H       1.347432   -2.587342    1.970825
H      -0.441514   -3.804561    0.909194
H      -1.239889   -2.350715   -1.155082
H      -2.402729   -2.489659    0.144008
H      -1.944506   -0.109112   -0.831917
