19

O      -0.132339    0.054244    0.277625
C       0.000078    1.207199   -0.057301
C       1.272954    1.956938   -0.012256
C       1.177342    3.453278    0.241227
C       1.499272    2.980766   -1.137441
C       2.909536    3.137023   -1.703374
C       3.870542    2.070853   -1.161276
O       3.697528    1.872524    0.231425
C       2.482782    1.197980    0.507202
H      -0.866319    1.800141   -0.437325
H       0.196375    3.874658    0.435415
H       1.985962    3.874702    0.828847
H       0.693381    3.056752   -1.861735
H       2.881424    3.068264   -2.795785
H       3.291423    4.134352   -1.458630
H       3.717065    1.116985   -1.691945
H       4.910823    2.374098   -1.307925
H       2.430926    1.083805    1.593766
H       2.490677    0.190595    0.064354
