16

O       0.014915    1.484711   -0.132875
C       0.002704    0.142308    0.303029
C      -1.344594   -0.507064    0.052599
O      -1.608625   -0.578885   -1.396297
C      -1.741992   -1.957539   -1.372242
O      -1.974921   -2.683189   -2.280200
C      -1.462603   -2.029577    0.111676
C      -0.690699   -3.032683    0.886452
N      -2.143072   -2.903706    1.053612
H      -0.194774    1.476975   -1.074265
H       0.787818   -0.457977   -0.182214
H       0.209317    0.158259    1.379304
H      -2.152090    0.047690    0.540116
H      -0.366863   -3.945429    0.395739
H      -0.030030   -2.663288    1.666854
H      -2.368928   -2.393242    1.904606
