14

C       0.178563    1.218152   -0.026207
C      -0.342321   -0.136899   -0.449850
O       0.225982   -0.803574   -1.290695
C      -1.630227   -0.601420    0.223606
C      -1.727684   -2.090760    0.600985
N      -1.289557   -2.951431   -0.355004
O      -2.221383   -2.430693    1.657192
H       1.037855    1.499822   -0.635438
H      -0.609503    1.974742   -0.110581
H       0.468781    1.183763    1.030592
H      -1.840266   -0.026128    1.126067
H      -2.440099   -0.390355   -0.489083
H      -0.687438   -2.593430   -1.084983
H      -1.244076   -3.926442   -0.104190
