20

O       0.093893    1.590980   -0.265889
C       0.008997    0.213027    0.007868
C       0.873181   -0.563800   -0.975607
O       2.213057   -0.081704   -0.811096
C       3.127269   -0.499135   -1.709495
N       4.324192   -0.113029   -1.614514
C       0.198441   -0.242436    1.489253
C      -1.079413   -1.113904    1.347110
C      -1.444037   -0.314353    0.065405
H       1.032748    1.808887   -0.327010
H       0.833054   -1.642658   -0.778944
H       0.529205   -0.371277   -2.000061
H       2.713300   -1.168866   -2.475739
H       4.880301   -0.513592   -2.366961
H       1.138029   -0.734482    1.750226
H       0.041864    0.609336    2.154808
H      -0.852204   -2.162182    1.135451
H      -1.796197   -1.080094    2.169223
H      -2.120852    0.517182    0.273755
H      -1.817527   -0.865164   -0.802859
