20

C       0.683880    0.356546   -0.940307
N      -0.536811    1.014392   -0.446661
C       0.425841    0.465816    0.517035
C      -0.032788   -0.714540    1.329746
C       1.117681   -1.622148    1.786881
C       0.574974   -2.662628    2.770223
O      -0.141337   -2.029644    3.821892
C      -1.175308   -1.230097    3.311185
O      -0.712183   -0.202195    2.477549
H       0.513264   -0.585780   -1.454814
H       1.481057    0.961191   -1.364377
H      -0.441255    2.024513   -0.502594
H       1.039934    1.168836    1.077441
H      -0.744671   -1.298197    0.721342
H       1.583475   -2.113763    0.925764
H       1.879605   -1.013501    2.286656
H      -0.086482   -3.370602    2.241071
H       1.378166   -3.236579    3.239383
H      -1.896986   -1.862563    2.757650
H      -1.665108   -0.755821    4.163933
