16

O       0.130594    1.409511    0.211407
C       0.077490    0.027065   -0.022191
C      -1.383416   -0.515714   -0.015854
C      -2.161185   -0.099067   -1.280288
O      -2.153008    1.323189   -1.346604
C      -1.400356   -1.962624    0.111098
C      -1.381416   -3.168120    0.199059
C      -1.370230   -4.529414    0.300534
N      -1.362093   -5.688220    0.383770
H      -0.470713    1.820749   -0.423890
H       0.549366   -0.260441   -0.976582
H       0.641330   -0.456331    0.780594
H      -1.882993   -0.073059    0.856357
H      -1.673723   -0.541197   -2.160932
H      -3.187984   -0.484827   -1.228952
H      -2.534691    1.596927   -2.185804
