20

C      -1.334685    0.152102    0.509687
C      -0.175148   -0.849927    0.489340
N       0.289449   -1.049746   -0.865239
C       1.485146   -0.829444   -1.242980
C       2.672061   -0.355941   -0.444941
N       1.705131   -1.098443   -2.607056
C       2.820325   -0.857239   -3.392735
N       2.632894   -1.246652   -4.711509
O       3.846388   -0.328840   -3.011902
H      -0.997459    1.141854    0.185867
H      -2.130234   -0.170548   -0.167780
H      -1.749057    0.243446    1.518768
H       0.601404   -0.519055    1.193716
H      -0.539676   -1.817695    0.860239
H       2.410953   -0.226558    0.604093
H       3.493671   -1.071319   -0.526727
H       3.052867    0.582971   -0.850236
H       0.853968   -1.401031   -3.059786
H       2.017860   -2.021252   -4.908319
H       3.491430   -1.248662   -5.240363
