18

C      -0.588291    1.100821   -0.367088
C       0.523126    0.157435    0.095706
N       1.152428   -0.560577   -1.007774
C       0.897457   -1.861540   -1.277375
O       0.212617   -2.595209   -0.593015
C       1.564615   -2.393527   -2.581901
N       1.631793   -3.841608   -2.503093
C       0.803231   -1.872681   -3.736871
N       0.219566   -1.485293   -4.657336
H      -0.206910    1.857138   -1.061332
H      -1.383434    0.545110   -0.871628
H      -1.022045    1.622272    0.491630
H       1.297968    0.711978    0.636843
H       0.128197   -0.606106    0.768279
H       1.679564   -0.026985   -1.681906
H       2.577012   -1.972162   -2.651044
H       0.814314   -4.159715   -1.987368
H       1.625045   -4.259602   -3.425995
