17

O      -0.051958    1.433725   -0.085489
C       0.025471    0.013930    0.005652
C       0.665070   -0.474523    1.314614
C      -0.137621   -1.271108    2.033920
C      -1.455998   -1.439040    1.361124
C      -2.340907   -0.212917    1.157474
C      -1.355806   -0.597346    0.108636
O      -1.829173   -1.642774   -0.752863
C      -1.883567   -2.549757    0.387930
H       0.845889    1.778812   -0.125594
H       0.542293   -0.399693   -0.873587
H       1.655713   -0.146375    1.619442
H       0.121925   -1.704745    2.994616
H      -3.396836   -0.349408    0.944917
H      -2.087784    0.650800    1.759885
H      -1.141844   -3.349271    0.287062
H      -2.882024   -2.981929    0.518976
