18

C      -0.539880    1.394071    0.089439
C      -0.091530   -0.044157   -0.031923
C       0.732965   -0.516508   -1.210691
O       1.188883    0.446296   -2.112353
C       2.605774    0.553458   -2.056273
C       3.069687    0.994211   -0.684764
N       4.080811    1.736340   -0.539014
O       2.309067    0.574964    0.371465
C       1.354440   -0.443379    0.156667
H       0.180374    2.074062   -0.366124
H      -1.500553    1.537101   -0.414688
H      -0.661584    1.674833    1.140095
H      -0.800114   -0.780698    0.338595
H       0.530688   -1.489631   -1.656969
H       3.078336   -0.404355   -2.322377
H       2.913998    1.304264   -2.783260
H       4.257309    1.908613    0.453186
H       1.601223   -1.347555    0.704162
