21

C      -0.718112    0.886327   -0.777001
C       0.349182   -0.089369   -0.306830
C       1.667098   -0.199626   -1.125034
C       2.458203   -0.275936    0.214848
O       3.669843    0.446425    0.308522
C       1.198053    0.278932    0.941141
C       2.836289   -1.696202    0.584856
C       2.855263   -2.181220    1.966339
O       1.805416   -2.557003    1.066068
H      -0.300590    1.890242   -0.920105
H      -1.156235    0.569950   -1.730270
H      -1.532389    0.966541   -0.048210
H      -0.080414   -1.084610   -0.167107
H       1.778792   -1.030653   -1.827162
H       1.890651    0.735260   -1.654220
H       3.523751    1.321041   -0.065636
H       1.288216    1.364005    1.065939
H       0.914159   -0.165341    1.897076
H       3.518116   -2.162966   -0.128048
H       3.537406   -2.982551    2.244135
H       2.560068   -1.517088    2.776126
