21

C      -0.059245    1.561109   -0.162689
C       1.403135    2.060399    0.048713
C       2.232636    0.805934    0.378950
C       2.227000    0.380621    1.881669
C       1.307823   -0.858092    1.847456
C      -0.141500   -0.428060    1.539238
C      -0.019099    0.037133    0.053407
C       1.449684   -0.391525   -0.235577
O       1.702861   -1.497417    0.624903
H      -0.769584    2.047062    0.512552
H      -0.394035    1.790331   -1.179282
H       1.777804    2.531816   -0.865332
H       1.478418    2.814603    0.837504
H       3.254225    0.879148    0.001943
H       3.228765    0.095393    2.212153
H       1.860388    1.166798    2.548206
H       1.424369   -1.552086    2.680282
H      -0.813896   -1.284897    1.627674
H      -0.504910    0.359206    2.206245
H      -0.741860   -0.485219   -0.575800
H       1.689135   -0.656803   -1.265365
