20

C      -0.018238    1.699251   -0.127153
C       0.016311    0.191607    0.082339
O       0.742806   -0.428112   -0.996594
C       2.001014   -0.740956   -0.567813
N       2.959077   -1.151553   -1.272069
O       2.104043   -0.550776    0.765649
C       0.784396   -0.337386    1.322778
C       0.923841    0.630396    2.489418
C       0.224952   -1.689431    1.775825
H       0.988771    2.125886   -0.111423
H      -0.466587    1.919369   -1.099435
H      -0.618206    2.188582    0.645638
H      -0.998375   -0.216269    0.056451
H       2.681735   -1.177583   -2.250554
H       1.407143    1.559954    2.183563
H      -0.057575    0.865617    2.912160
H       1.530958    0.174265    3.275879
H       0.900758   -2.151882    2.499638
H      -0.755184   -1.561295    2.246174
H       0.113165   -2.367450    0.924791
