21

C      -0.137490    1.574298   -0.353700
C       0.120957    0.072491   -0.267923
C       0.846141   -0.711873   -1.362179
C       2.361702   -0.835059   -0.978428
C       2.579757   -0.134902    0.363452
C       3.074514    1.304964    0.472625
C       1.129439   -0.593436    0.724422
C       1.314211   -1.738429   -0.386565
O       1.105091   -3.092621   -0.395169
H       0.714469    2.136860   -0.737197
H      -0.980855    1.767742   -1.026418
H      -0.401497    1.986447    0.626858
H      -0.841022   -0.427519   -0.099364
H       0.544275   -0.881136   -2.388680
H       3.087824   -1.072337   -1.746909
H       3.255163   -0.766437    0.956064
H       2.602504    1.976722   -0.244899
H       2.902003    1.707287    1.477298
H       4.154167    1.341787    0.287382
H       0.849104   -0.738302    1.767405
H       1.830385   -3.518483    0.075818
