16

O      -0.027781    1.378407    0.053516
C       0.004001   -0.014329   -0.034500
C      -0.507943   -0.701585   -1.279142
C      -1.296843   -0.729145    0.026507
N      -1.323086   -1.905256    0.850008
C      -0.213503   -2.681734    1.096865
O      -0.261349   -3.819813    1.484981
O       0.989408   -2.086001    0.848453
C       1.091460   -0.661227    0.801480
H       0.646002    1.731846   -0.538678
H      -0.888753   -0.060375   -2.066319
H      -0.025974   -1.616445   -1.606453
H      -2.199663   -0.133765    0.089165
H      -2.173860   -2.447588    0.863056
H       2.089644   -0.456927    0.401732
H       1.034989   -0.245830    1.815921
