20

C      -0.117629    1.509458    0.086593
C      -0.051244   -0.022221   -0.079553
C      -1.394228   -0.555461   -0.315072
C      -2.502157   -0.968338   -0.537139
C       0.919712   -0.479743   -1.213592
C       2.331411    0.100295   -1.060994
C       1.011222   -2.011770   -1.180668
N       0.343722   -2.665014   -2.181290
O       1.662993   -2.595350   -0.335909
H       0.846028    1.913262    0.404271
H      -0.406538    1.991460   -0.852811
H      -0.862231    1.772145    0.842170
H       0.332092   -0.458706    0.852209
H      -3.483296   -1.339765   -0.702081
H       0.492685   -0.155542   -2.170080
H       2.765840   -0.210699   -0.107626
H       2.981440   -0.273480   -1.857569
H       2.327426    1.191003   -1.117797
H      -0.408736   -2.194379   -2.657299
H       0.253064   -3.664342   -2.071110
