20

C       0.087475    1.471082    0.000698
C       1.324181    0.627689   -0.012519
C       2.267810    0.711573    1.171980
O       2.913318   -0.506729    1.509336
C       2.044349   -1.578915    1.777047
O       1.121068   -1.344082    2.804339
C      -0.096245   -0.649949    2.527494
C      -0.629926   -0.725066    1.093148
N      -0.009491    0.027924    0.003775
H      -0.110625    2.018193    0.923641
H      -0.261890    1.972715   -0.899281
H       1.837838    0.470612   -0.960724
H       3.076523    1.401803    0.910042
H       1.762206    1.128284    2.050958
H       1.537124   -1.900184    0.856479
H       2.690113   -2.384943    2.133768
H      -0.848545   -1.117145    3.174615
H      -0.007372    0.396123    2.851685
H      -0.650277   -1.779266    0.789923
H      -1.677518   -0.403236    1.131620
