16

C       0.022207    1.548179    0.010928
C      -0.046014    0.054305   -0.033577
C      -0.862487   -0.811965    0.828722
N       0.621508   -0.836273    1.038639
C       1.159513   -1.667741   -0.032906
O       1.899871   -2.595934    0.026082
C       0.553939   -0.802813   -1.138137
C       0.163265   -1.075579   -2.523925
O       1.316327   -0.286161   -2.204866
H       0.995823    1.900630   -0.340047
H      -0.748262    1.987975   -0.631988
H      -0.136704    1.909692    1.030141
H      -1.383590   -0.363878    1.669241
H      -1.343391   -1.698852    0.422249
H       0.374605   -2.051801   -2.955702
H      -0.672316   -0.528431   -2.957211
