14

N       0.142999    1.474851    0.132943
C       0.300824    0.051768   -0.146979
C       0.851202   -0.644610    1.054112
N       0.659804   -0.348291    2.301689
C       1.359871   -1.350980    2.946236
N       1.942410   -2.212733    2.141080
O       1.604133   -1.737610    0.873827
C       1.452372   -1.458482    4.356428
C       1.525249   -1.542769    5.552509
H      -0.421417    1.905148   -0.591600
H      -0.350421    1.591727    1.012726
H      -0.630052   -0.475798   -0.425531
H       0.998451   -0.092010   -0.979391
H       1.591635   -1.617685    6.610247
