12

O      -0.030801    0.013544    0.115006
C      -0.009611    1.204622    0.040301
C       1.326168    2.016305   -0.024413
C       1.346537    2.801002   -1.265669
N       1.323533    3.394294   -2.256329
C       1.418591    2.853342    1.163921
C       1.447750    3.508928    2.179333
C       1.488126    4.254257    3.315920
C       1.523913    4.914468    4.325477
H      -0.915926    1.840014    0.031651
H       2.136411    1.277812   -0.051038
H       1.555768    5.497665    5.212927
