17

C       0.087782    1.597430   -0.239299
C       0.003020    0.091395    0.059457
C      -1.405754   -0.408812    0.137552
C      -2.152644   -0.808045    1.227905
C      -1.858804   -0.911348    2.686569
N      -3.354083   -1.131000    0.680134
N      -3.365707   -0.950842   -0.654398
N      -2.187030   -0.512942   -0.981576
H       1.129763    1.920320   -0.327709
H      -0.425772    1.827815   -1.176598
H      -0.384997    2.183851    0.555203
H       0.527318   -0.461598   -0.728134
H       0.524460   -0.132487    0.996926
H      -2.467510   -0.216214    3.276252
H      -2.045032   -1.921256    3.069009
H      -0.810056   -0.673893    2.876536
H      -4.182938   -1.478025    1.136213
