16

C      -0.035665    1.538009   -0.030593
C      -0.009951    0.036683   -0.011743
N      -0.034017   -0.581408   -1.159292
N      -0.010538   -1.911442   -1.118620
C       0.037248   -2.728139    0.021861
O       0.054203   -3.932468   -0.088670
N       0.061996   -2.034750    1.230659
C       0.039895   -0.734623    1.219170
C       0.067688   -0.021573    2.542717
H       0.853088    1.962068    0.450167
H      -0.072462    1.886189   -1.063949
H      -0.907755    1.932554    0.502922
H      -0.029592   -2.378357   -2.015560
H       0.104496   -0.753888    3.348825
H       0.938614    0.640191    2.611499
H      -0.819618    0.610124    2.664536
