18

C      -0.080020    1.591271   -0.016903
C      -0.007674    0.059884   -0.032660
C      -1.421697   -0.556787    0.042374
C      -1.415117   -2.017665    0.074744
N      -1.414338   -3.172629    0.098825
N       0.692983   -0.462382   -1.195387
C       2.073529   -0.548194   -1.180785
N       2.619671   -0.920751   -2.401778
O       2.746238   -0.299790   -0.198245
H       0.931620    2.002144   -0.035283
H      -0.627960    1.971250   -0.887266
H      -0.582162    1.954477    0.885697
H       0.572669   -0.273603    0.830605
H      -1.933450   -0.184636    0.936074
H      -2.021239   -0.229585   -0.817072
H       0.250364   -0.332940   -2.093440
H       2.081988   -1.558337   -2.970822
H       3.593448   -1.173187   -2.320864
