21

C      -0.247900    1.507790    0.236385
C      -0.114721    0.051839   -0.225065
C      -1.412524   -0.715670   -0.085584
C      -1.501305   -2.211055   -0.016910
C      -0.295002   -3.120932   -0.084815
C      -1.770079   -1.383235    1.244950
O      -0.803902   -1.318888    2.253930
C      -3.175262   -1.260406    1.709643
O      -4.143079   -1.299847    0.986106
H       0.689029    2.053776    0.089520
H      -1.031161    2.032203   -0.321825
H      -0.503742    1.556239    1.299358
H       0.195072    0.023345   -1.277831
H       0.675845   -0.437247    0.349338
H      -2.272234   -0.239250   -0.551775
H      -2.413199   -2.623909   -0.440823
H       0.549318   -2.729333    0.486586
H      -0.535795   -4.115280    0.307154
H       0.033989   -3.249455   -1.121287
H      -0.699649   -2.195451    2.639334
H      -3.266430   -1.118488    2.810335
