18

C       0.151123    1.464326   -0.683127
N       0.091302    0.143022   -0.099341
C      -0.960099   -0.339475    0.401681
O      -0.922285   -1.625170    0.934589
C       0.042506   -2.502507    0.519745
O       0.161083   -3.568968    1.039261
C      -2.309443    0.242823    0.575111
C      -3.549661   -0.627289    0.438419
C      -3.152914   -0.120922    1.787398
H       0.872729    2.068386   -0.121550
H       0.536745    1.382398   -1.705307
H      -0.797922    2.013684   -0.722184
H       0.637729   -2.108798   -0.313075
H      -2.402596    1.261272    0.223838
H      -4.402969   -0.181704   -0.059863
H      -3.394898   -1.678741    0.231311
H      -2.728332   -0.830537    2.485893
H      -3.727580    0.681405    2.235607
