17

O       0.221388    1.287280   -0.366520
C       0.066150   -0.048319    0.041573
C       0.138484   -0.249229    1.580077
C      -1.278805   -0.869527    1.574540
N      -2.375820    0.108875    1.664640
C      -2.447179    0.350255    0.292625
N      -3.133049    1.066331   -0.495029
C      -1.363591   -0.668173   -0.006068
O      -1.555951   -1.608949   -1.001143
H      -0.268417    1.412132   -1.187334
H       0.748579   -0.723986   -0.494110
H       0.924315   -0.941010    1.889968
H       0.233732    0.680978    2.144066
H      -1.461229   -1.810937    2.092389
H      -2.463837    0.819511    2.379970
H      -3.791589    1.667914    0.002842
H      -2.488336   -1.600641   -1.246222
