19

C      -0.202377    1.542090    0.040229
C       0.049850    0.029987    0.009610
C       0.858076   -0.452520   -1.236370
C       2.314748   -0.625474   -0.817656
O       2.720616    0.570368   -0.071019
C       2.362370   -0.104998    1.136893
C       2.409713   -1.488130    0.502525
O       1.136421   -1.879926    1.015445
C       0.826344   -0.462459    1.232884
H       0.737141    2.097313    0.000722
H      -0.813540    1.845911   -0.816020
H      -0.741851    1.831972    0.949232
H      -0.917169   -0.485429    0.019676
H       0.471159   -1.407988   -1.603400
H       0.787357    0.272002   -2.053548
H       3.007138   -0.841339   -1.634484
H       2.881863    0.253251    2.025912
H       3.186412   -2.248477    0.586760
H       0.315901   -0.304106    2.186326
