15

O       0.222977    1.423792   -0.204343
C       0.036255    0.028162   -0.039878
C       0.603988   -0.545257    1.271441
C      -0.304521   -1.305980    1.912657
C      -1.518410   -1.258040    1.110377
C      -1.388104   -0.481205    0.000114
C      -2.644906   -0.542852   -0.670483
C      -3.429039   -1.351218    0.105406
O      -2.744986   -1.805824    1.209060
H      -0.268554    1.860393    0.500311
H       0.578552   -0.429811   -0.878654
H       1.617168   -0.337772    1.588889
H      -0.173264   -1.845659    2.840624
H      -2.950358   -0.061357   -1.586556
H      -4.449436   -1.687365    0.027780
