12

N      -0.104118    1.308612    0.010729
C       0.065085   -0.034674    0.002915
O       1.127079   -0.615790   -0.009487
C      -1.255251   -0.803039    0.011600
N      -1.204540   -2.130948    0.007207
C      -2.405928   -2.692636    0.015274
N      -3.576654   -2.041174    0.026393
N      -3.545574   -0.721943    0.030050
N      -2.387916   -0.087034    0.022824
H       0.711726    1.897210    0.003339
H      -1.029011    1.706821    0.018065
H      -2.464238   -3.777851    0.012515
