21

C      -0.147865    1.585031    0.053822
C      -0.006056    0.065769   -0.098827
C       0.624538   -0.579062    1.130643
C      -0.168916   -0.671009    2.439088
O      -1.000967    0.023586    2.952903
C       0.381580   -2.069696    2.743651
C       0.868354   -2.122038    1.251534
C      -0.011912   -2.992448    0.361225
O       2.240779   -2.408185    1.060177
H       0.830911    2.061527    0.178118
H      -0.623948    2.024883   -0.827738
H      -0.754104    1.827826    0.930539
H      -0.993877   -0.374316   -0.279627
H       0.606491   -0.169013   -0.978326
H       1.588414   -0.101617    1.356520
H       1.232597   -2.024587    3.430538
H      -0.334053   -2.817991    3.093753
H      -1.073864   -2.761202    0.489686
H       0.247340   -2.855577   -0.692371
H       0.123134   -4.051390    0.614273
H       2.363993   -3.361406    1.127284
