20

C       0.189377    1.426447   -0.207384
C       0.003595   -0.047610    0.101797
C      -1.132511   -0.666420   -0.693966
O       1.216997   -0.826673    0.145875
C       0.488938   -0.626188    1.380503
C       1.208150    0.194822    2.434478
C      -0.072246   -1.925391    1.943882
O       0.986040   -2.811667    2.275255
H       1.009878    1.874267    0.351640
H       0.396913    1.555072   -1.275160
H      -0.728151    1.980189    0.020217
H      -1.028459   -0.397278   -1.750713
H      -1.137865   -1.754105   -0.629787
H      -2.101612   -0.287867   -0.350991
H       0.490787    0.703909    3.087655
H       1.810912   -0.477890    3.051426
H       1.871978    0.938060    1.993537
H      -0.610547   -1.725927    2.876802
H      -0.774962   -2.397265    1.248472
H       1.516356   -2.900767    1.473932
