20

C       0.158268    1.607084   -0.191634
C       0.050768    0.103360    0.019916
C       0.825153   -0.874405   -0.914828
N       1.290052   -1.683315    0.263393
C       2.693900   -1.486420    0.773105
C       3.606990   -0.471434    0.084680
O       2.958715    0.630467    0.766720
C       2.222107   -0.275709    1.624425
C       0.775702   -0.606896    1.192099
H       1.199769    1.929118   -0.226234
H      -0.332556    1.896336   -1.127976
H      -0.340401    2.150618    0.618912
H      -1.006178   -0.181130    0.054047
H       0.217466   -1.466262   -1.605932
H       1.621291   -0.392446   -1.490179
H       3.138746   -2.406772    1.153438
H       4.655598   -0.565908    0.397710
H       3.571898   -0.378203   -1.005769
H       2.433973   -0.099078    2.682968
H       0.154122   -0.945632    2.029982
