14

O      -0.068377    1.424573    0.049968
C      -0.026652    0.034597    0.048593
C      -0.388712   -0.753072   -1.191867
C      -1.288522   -0.773761    0.045499
C      -1.064320   -1.922039    1.010023
O      -1.867789   -2.766175    1.327466
C       0.342904   -1.789356    1.497129
C       0.901250   -0.683920    0.988478
H       0.641169    1.750218   -0.514535
H      -0.774476   -0.184032   -2.032188
H       0.185303   -1.637104   -1.448354
H      -2.267245   -0.319194   -0.027594
H       0.800266   -2.516713    2.154721
H       1.909717   -0.329719    1.174382
