18

C      -0.041945    1.525335   -0.003413
C       0.095088    0.010271   -0.026780
C       1.045153   -0.585753   -1.097908
C       1.585636   -1.821974   -0.241211
C       0.630999   -2.019468    0.932094
N       0.789329   -0.537140    1.201601
C       2.223404   -0.670773    0.636471
C       2.346603    0.102086   -0.665833
O       3.221669    0.717574   -1.201247
H       0.924982    2.024283    0.113067
H      -0.491689    1.883462   -0.935407
H      -0.680904    1.829603    0.829700
H      -0.901051   -0.438464   -0.078702
H       0.731814   -0.661221   -2.136181
H       2.158848   -2.590906   -0.757079
H      -0.397763   -2.354192    0.766041
H       1.080139   -2.597320    1.743726
H       3.000862   -0.790632    1.385930
