17

C       0.023521    1.672335    0.396219
C      -0.077691    0.202126    0.004931
C      -1.465642   -0.115295   -0.555509
O      -1.621943   -1.428915   -1.061378
C       1.181025   -0.386900   -0.715330
O       1.923430   -0.282324    0.575444
C       0.593372   -0.795987    1.003803
C       0.833736   -1.796308   -0.168658
O       0.969039   -2.953361   -0.388181
H       1.010207    1.900195    0.800310
H      -0.155167    2.315708   -0.472020
H      -0.728829    1.923124    1.152043
H      -2.221914    0.117356    0.209554
H      -1.657756    0.554758   -1.401542
H      -1.765622   -2.040574   -0.333055
H       1.694994   -0.059626   -1.617147
H       0.436332   -0.938504    2.072362
