16

C      -0.023501    1.389950   -0.116363
N      -0.050822   -0.059139   -0.171576
C      -1.144095   -0.663180   -0.096740
O      -2.407873   -0.101035    0.049505
C      -3.302385   -1.145923    0.104434
N      -4.641198   -0.810399    0.153843
C      -2.650506   -2.305617    0.006120
N      -3.110953   -3.611195    0.004913
O      -1.270211   -2.010039   -0.150810
H       0.458849    1.715846    0.813576
H       0.590401    1.769028   -0.940745
H      -1.010913    1.864376   -0.174172
H      -4.848232   -0.117274    0.864614
H      -5.214031   -1.635847    0.280189
H      -2.958026   -4.087817   -0.879344
H      -2.701047   -4.175525    0.743322
