19

C       0.000459   -1.219671   -0.036496
C      -0.006981   -0.014873   -0.015531
C      -0.015951    1.406763    0.009642
C      -0.651242    2.333237    1.131901
C       0.727890    3.006749    1.326709
C       1.249636    2.365703    0.018834
C       0.712125    3.051940   -1.259420
C      -0.665072    2.372652   -1.070810
C      -1.519640    3.014778    0.048067
H       0.006330   -2.280924   -0.054955
H      -1.154672    1.939530    2.014475
H       0.750920    4.099348    1.397872
H       1.244193    2.588700    2.195862
H       2.275315    1.997978    0.006124
H       0.735255    4.146345   -1.293069
H       1.216921    2.663951   -2.149044
H      -1.180086    2.010525   -1.960192
H      -2.532886    2.602313    0.047002
H      -1.586648    4.107710    0.068326
