20

C       0.033873    1.424568   -0.013668
C      -0.141422   -0.072209    0.177983
O       0.872411   -0.530782    1.056139
C       0.859861   -1.918699    1.267458
C       1.958631   -2.274696    2.263800
C       1.025600   -2.178833    3.409919
C      -0.136393   -2.405038    2.366444
C       0.224990   -3.891851    2.474736
N       1.572292   -3.510295    3.026105
H       1.018533    1.643874   -0.435940
H      -0.731155    1.813945   -0.692004
H      -0.051840    1.946660    0.943485
H      -1.139229   -0.293096    0.589212
H      -0.067118   -0.598425   -0.788193
H       0.823094   -2.453980    0.304561
H       3.013765   -2.044142    2.203401
H       1.102543   -1.744020    4.396810
H      -1.157360   -2.029857    2.399779
H      -0.324401   -4.429129    3.251822
H       0.246847   -4.490801    1.555615
