20

C       0.176209    1.487842   -0.115937
C       0.064096   -0.030711    0.038582
C       0.694067   -0.547678    1.337154
C       0.619503   -2.061772    1.442109
O       1.371247   -2.736371    0.396535
C       2.286098   -3.313628    1.347691
C       1.473945   -2.748595    2.534901
O       2.116862   -1.844295    3.400776
H       1.223991    1.808281   -0.119990
H      -0.279148    1.827997   -1.051435
H      -0.323977    2.010504    0.707397
H      -0.992999   -0.327257    0.003880
H       0.550396   -0.529526   -0.807345
H       1.741651   -0.233803    1.400487
H       0.186465   -0.113076    2.208285
H      -0.428821   -2.390871    1.422204
H       2.341703   -4.405411    1.256669
H       3.294895   -2.886600    1.271989
H       0.925403   -3.515268    3.095808
H       2.592523   -2.346281    4.069202
