17

O      -0.034544    1.420536   -0.207462
C      -0.010883    0.022163   -0.057715
C       1.097723   -0.546413   -0.912350
C       2.475820    0.001984   -0.484595
C       3.564426   -0.512983   -1.309629
N       4.414180   -0.933556   -1.970558
C      -0.332770   -0.598331    1.276449
C      -1.296911   -0.737953    0.105605
H      -0.638983    1.797936    0.438460
H       1.092973   -1.637717   -0.843526
H       0.915168   -0.284903   -1.959992
H       2.463713    1.094250   -0.544322
H       2.676120   -0.257043    0.561333
H       0.219712   -1.474632    1.599582
H      -0.620490    0.062521    2.088906
H      -2.214837   -0.159881    0.140906
H      -1.402099   -1.708480   -0.367599
