23

C       0.122411    1.491320    0.287417
C       0.017335    0.014010   -0.134535
C      -1.391793   -0.530360   -0.107670
C      -2.011904   -0.928735   -1.222190
C      -3.416158   -1.467689   -1.285476
C      -4.187393   -1.225984    0.019292
C      -3.299332   -1.516221    1.230600
C      -2.081508   -0.594420    1.250978
O      -1.210489   -1.091726    2.271185
H       1.159281    1.837874    0.237933
H      -0.481355    2.128029   -0.366859
H      -0.227706    1.654950    1.313171
H       0.424784   -0.098935   -1.144623
H       0.651278   -0.593189    0.524448
H      -1.474131   -0.873595   -2.168109
H      -3.947849   -1.017919   -2.133929
H      -3.378777   -2.545585   -1.505803
H      -4.520747   -0.180367    0.055373
H      -5.091402   -1.843098    0.049264
H      -3.851219   -1.404348    2.169069
H      -2.934729   -2.550338    1.193876
H      -2.414951    0.421073    1.525951
H      -0.571778   -0.405892    2.485951
