16

C      -0.206051    1.282296    0.498672
N      -0.159630   -0.144626    0.229021
C      -1.125032   -0.698825   -0.367234
N      -2.254651   -0.035068   -0.891335
C      -3.420832   -0.325251   -0.446869
C      -3.782828   -1.391435    0.476513
C      -3.092279   -2.547329    0.600774
C      -1.906603   -2.876650   -0.180838
N      -1.042979   -2.076084   -0.681591
H       0.806968    1.687015    0.410795
H      -0.876380    1.840182   -0.166421
H      -0.529789    1.457538    1.532814
H      -4.251791    0.275526   -0.826339
H      -4.736897   -1.287565    0.986862
H      -3.508690   -3.346526    1.208667
H      -1.762923   -3.939974   -0.389820
