17

C      -0.243785    1.429512    0.192463
N      -0.249392   -0.024010    0.169149
C       0.648045   -0.643864    0.818013
O       1.613719    0.051265    1.534197
N       2.629373   -0.571682    2.269785
C       2.657918   -1.860783    2.273748
C       3.761277   -2.494130    3.073387
C       1.699774   -2.685879    1.561267
C       0.727289   -2.088738    0.857024
H       0.691097    1.842264   -0.210059
H      -1.076028    1.798026   -0.411405
H      -0.349175    1.823532    1.212280
H       4.380117   -1.725044    3.536737
H       3.347351   -3.140212    3.855710
H       4.390198   -3.121388    2.431676
H       1.792728   -3.764872    1.615128
H      -0.027628   -2.626628    0.297169
