21

O      -0.201451    1.476445    0.159629
C       0.019073    0.082882   -0.011725
C      -1.335024   -0.605422   -0.048595
C      -2.232325   -0.159462   -1.226987
C      -3.182073   -1.336884   -1.521377
O      -3.030997   -1.713322   -2.892860
C      -2.711265   -2.501646   -0.589972
O      -2.873839   -3.772304   -1.183594
C      -1.268190   -2.130053   -0.212323
H       0.650974    1.921028    0.149835
H       0.558592   -0.122364   -0.951826
H       0.625633   -0.327156    0.812109
H      -1.844383   -0.373638    0.896658
H      -2.756614    0.775476   -1.024495
H      -1.621056   -0.000581   -2.122290
H      -4.231227   -1.081919   -1.327591
H      -3.753442   -2.316670   -3.098929
H      -3.330806   -2.514261    0.313906
H      -2.438104   -3.710572   -2.043265
H      -0.601458   -2.389470   -1.047165
H      -0.912079   -2.660239    0.674869
