20

C       0.047407    1.445873    0.024012
N      -0.112731    0.006120    0.014743
C       0.052874   -0.715032    1.260167
C      -0.042947   -0.681788   -1.188188
C      -0.006963   -2.091484   -1.225563
C       0.032753   -2.772717   -2.436011
C       0.046923   -2.088689   -3.648350
C       0.025739   -0.697001   -3.623313
C      -0.014047    0.000812   -2.422356
H       1.026122    1.772454   -0.361924
H      -0.728031    1.935770   -0.576758
H      -0.051996    1.810978    1.047399
H      -0.049473   -0.018666    2.093904
H      -0.718266   -1.485423    1.378590
H       1.034385   -1.207959    1.344913
H      -0.009233   -2.661577   -0.306138
H       0.056841   -3.858159   -2.424340
H       0.079940   -2.626552   -4.588873
H       0.044229   -0.136567   -4.553084
H      -0.022100    1.082317   -2.447626
