18

C      -0.040175    1.534893   -0.000850
C       0.064932    0.013923    0.064439
C       0.828534   -0.499182    1.272898
O       1.309471    0.268820    2.097751
C       0.937093   -1.963606    1.429419
C       2.205660   -2.525239    2.089609
C       0.956634   -2.496505    2.887310
O       0.772710   -1.643980    3.953655
H       0.951249    1.993794   -0.029484
H      -0.592003    1.844748   -0.892557
H      -0.554384    1.928745    0.879357
H      -0.928940   -0.455268    0.079173
H       0.554267   -0.391909   -0.832315
H       0.450348   -2.572276    0.675664
H       2.576015   -3.469558    1.706326
H       2.963233   -1.787617    2.333577
H       0.424089   -3.429709    3.040615
H       1.105636   -0.771590    3.677482
