12

O       0.012007    1.459008    0.009785
C       0.005263    0.039172    0.002360
C      -1.366182   -0.445270    0.012769
C      -2.496688   -0.882599    0.021146
C      -3.758229   -1.366234    0.030535
C      -4.895965   -1.801968    0.039044
C      -6.158876   -2.286870    0.048627
C      -7.288209   -2.720260    0.057400
H       0.932255    1.742287    0.002630
H       0.513931   -0.363482   -0.889544
H       0.530660   -0.372816    0.880192
H      -8.279608   -3.100509    0.065090
