20

C       0.031879    1.481089    0.004878
C       0.133567   -0.019359   -0.047496
C       0.201984   -0.746319   -1.378243
C       0.114535   -2.167451   -0.871092
C      -0.714946   -2.183581    0.386201
C       0.781823   -2.286124    0.490861
C       0.765616   -0.840393    1.028748
C       1.528801   -0.371639    2.227673
N      -0.736367   -0.774335    0.926007
H       0.921732    1.950156   -0.429375
H      -0.841763    1.825849   -0.558578
H      -0.077715    1.835393    1.032218
H      -0.635970   -0.480714   -2.033069
H       1.137509   -0.533430   -1.907939
H       0.103939   -3.026945   -1.529667
H      -1.515787   -2.871579    0.621767
H       1.421807   -3.098388    0.806729
H       2.604512   -0.342782    2.016457
H       1.214402    0.629636    2.533104
H       1.370904   -1.045830    3.076772
