19

C      -0.143784    1.591358    0.005622
C       0.053171    0.056418   -0.012105
C      -1.332107   -0.632951    0.018617
C       0.799114   -0.349404   -1.253704
C       1.967492   -0.973836   -1.232369
C       2.660289   -1.336914    0.036177
O       1.977872   -0.964859    1.235917
C       0.785676   -0.327361    1.282747
O       0.322866   -0.073534    2.363260
H       0.816551    2.114936   -0.019123
H      -0.722593    1.902694   -0.870027
H      -0.679364    1.889295    0.909245
H      -1.916915   -0.332886   -0.856983
H      -1.233564   -1.722468    0.003325
H      -1.873151   -0.345143    0.922273
H       0.322621   -0.100119   -2.199427
H       2.481973   -1.254130   -2.147183
H       2.823846   -2.421988    0.091498
H       3.653836   -0.870104    0.082410
