15

N       0.084401   -1.116165   -0.015538
C       0.022954    0.037639   -0.047903
C      -0.103241    1.468060   -0.083834
C      -1.298902    2.148035    0.484668
C      -1.361391    3.396606    0.007567
C      -0.127455    3.674033   -0.811350
C       1.073345    3.621782    0.206376
N       1.289625    2.167809   -0.038079
C       0.405717    2.272980   -1.228550
H      -1.950929    1.677993    1.207506
H      -2.064185    4.162868    0.309522
H      -0.163751    4.490899   -1.528276
H       1.957086    4.134619   -0.178888
H       0.879123    3.915429    1.241428
H       0.665991    1.885459   -2.208015
