14

C       0.049134    1.498944    0.009707
O       1.235177    0.655762   -0.007053
C      -0.013969    0.048187    0.002474
C      -0.613695   -0.994713    0.987322
O      -1.701341   -1.115273    0.013487
C      -0.633912   -0.984011   -0.981120
C       0.231745   -2.215761   -0.680712
C       0.245412   -2.223071    0.655823
H      -0.108982    2.050171    0.934694
H      -0.127880    2.060171   -0.905793
H      -0.928271   -0.782725    2.007153
H      -0.969343   -0.760988   -1.991912
H       0.714882   -2.862637   -1.397128
H       0.743035   -2.877681    1.355091
