16

O       0.009480   -0.076725    0.033078
C      -0.020982    1.135073    0.045385
C      -1.306496    1.953549    0.057851
C      -1.181750    3.298543    0.815912
C       0.090380    4.008770    0.390360
C       1.152746    3.291707    0.024786
N       1.129940    1.894377   -0.022006
C      -2.375283    4.118493    0.625795
C      -3.359109    4.787286    0.456044
H      -1.560053    2.162258   -0.989249
H      -2.100844    1.330323    0.469687
H      -1.101400    3.072563    1.892409
H       0.131694    5.088900    0.414419
H       2.099569    3.741168   -0.250178
H       1.988145    1.375745   -0.131548
H      -4.229173    5.379116    0.313349
