19

C      -0.041975    1.571138   -0.067307
C       0.048231    0.065995    0.023990
C       1.324883   -0.678032   -0.171671
O       2.514130    0.052413   -0.133071
C       2.951499    0.155238    1.232939
C       1.677547    0.121572    2.099293
C       0.693659   -0.648123    1.227618
C       0.030779   -1.852159    1.762918
O       0.161283   -2.275669    2.886980
H       0.928390    2.040265    0.105363
H      -0.372814    1.862123   -1.069478
H      -0.760642    1.974502    0.653034
H      -0.829038   -0.462811   -0.346617
H       1.364030   -1.588163   -0.764561
H       3.609271   -0.692346    1.472529
H       3.527853    1.079560    1.323082
H       1.825168   -0.413605    3.039692
H       1.322062    1.128789    2.334061
H      -0.626288   -2.373393    1.027606
