21

C      -0.027740    1.564125   -0.224587
C       1.466643    1.961306   -0.237745
C       2.218412    0.630150    0.005644
C       2.749864    0.471703    1.435476
C       1.748643    0.581647    2.559671
C       0.458406    0.238717    2.571019
C      -0.374439   -0.358697    1.462953
C      -0.015341    0.036455    0.025292
O       1.293253   -0.399615   -0.334784
H      -0.588051    2.091905    0.550851
H      -0.500470    1.788091   -1.183746
H       1.749965    2.386197   -1.203570
H       1.703674    2.701019    0.530658
H       3.064839    0.515725   -0.680215
H       3.251110   -0.505190    1.503366
H       3.539963    1.219274    1.584796
H       2.165122    0.949990    3.495764
H      -0.070547    0.355776    3.515428
H      -0.323361   -1.455240    1.534798
H      -1.428856   -0.101376    1.628497
H      -0.704418   -0.486077   -0.647068
