23

O      -0.022742    1.430803   -0.248467
C       0.032186    0.022811   -0.069870
C      -1.391890   -0.515608   -0.158816
C      -1.456160   -2.034166   -0.029931
C      -1.290393   -2.674651    1.391262
C      -2.803330   -2.384736    1.609266
C      -2.872253   -2.688227    0.084250
C      -2.519750   -4.188643    0.051107
C      -1.309369   -4.178142    1.049532
H       0.872028    1.776968   -0.185587
H       0.658616   -0.452280   -0.843208
H       0.470761   -0.237281    0.906886
H      -1.994034   -0.011459    0.603568
H      -1.807333   -0.214706   -1.128933
H      -0.815187   -2.480603   -0.802632
H      -0.530551   -2.333527    2.096306
H      -3.354601   -3.046415    2.284950
H      -3.019896   -1.346287    1.859386
H      -3.706383   -2.353112   -0.534516
H      -3.345048   -4.817405    0.397567
H      -2.236670   -4.527700   -0.949723
H      -0.377091   -4.511058    0.583655
H      -1.485044   -4.802033    1.930724
