18

O      -0.130367   -0.086015   -0.258994
C      -0.087990    1.126020   -0.126864
N      -1.202768    1.916613   -0.251838
C      -1.252584    3.312923    0.105931
C      -1.366364    3.741276    1.601992
C      -0.298561    4.835127    1.328600
C       0.094372    4.086004    0.012846
C       1.277242    3.182575    0.164344
C       1.184984    1.851288    0.130051
H      -2.064058    1.407699   -0.386721
H      -2.026468    3.800298   -0.493662
H      -2.346333    4.066711    1.957857
H      -0.990843    2.957087    2.263353
H      -0.738706    5.813186    1.118969
H       0.488678    4.958084    2.075515
H       0.227143    4.728078   -0.865202
H       2.244336    3.661413    0.309059
H       2.048403    1.205495    0.241557
