21

C       0.057819    1.480182    0.076953
C       0.043951   -0.039276   -0.120591
C       1.063371   -0.558474   -1.151647
C       1.159336   -2.092177   -1.122158
N       0.882182   -0.149510   -2.546945
C      -0.247271    0.224408   -2.973314
N      -0.401909    0.554800   -4.318755
C      -1.578792    0.991137   -4.876145
O      -2.617102    1.138183   -4.274658
H       1.049831    1.822720    0.391329
H      -0.198090    2.018830   -0.839815
H      -0.657729    1.781118    0.848141
H       0.277727   -0.524471    0.834747
H      -0.965810   -0.383580   -0.379834
H       2.048565   -0.164338   -0.864548
H       1.878571   -2.445139   -1.865604
H       1.476071   -2.441940   -0.134741
H       0.186867   -2.542306   -1.350894
H      -1.176014    0.334246   -2.412285
H       0.422124    0.464340   -4.896626
H      -1.465715    1.195117   -5.957793
