19

C       0.074812    1.475693    0.032012
C      -0.027872   -0.036444    0.265163
C      -1.447197   -0.554355    0.102848
C      -1.998617   -0.809261   -1.328871
O      -1.087888   -1.958493   -1.468962
C      -1.681633   -2.078116   -0.108104
C      -3.066761   -1.805662   -0.743943
C      -4.259704   -1.332460    0.036113
O      -4.289481   -1.132940    1.226089
H       1.100188    1.827623    0.179357
H      -0.222948    1.742846   -0.987894
H      -0.570503    2.031297    0.721492
H       0.629841   -0.572799   -0.424292
H       0.313165   -0.270927    1.281684
H      -2.143630   -0.079475    0.796838
H      -2.103046   -0.139890   -2.183679
H      -1.370509   -2.924443    0.504160
H      -3.357801   -2.544613   -1.495892
H      -5.169170   -1.174228   -0.588440
