13

C       0.042031    1.471454   -0.030430
N       0.011231    0.030304    0.071076
N      -0.057999   -0.741713   -1.062962
N      -0.076294   -1.996612   -0.781775
C      -0.017497   -2.097369    0.595885
N      -0.000318   -3.058357    1.498981
O       0.070386   -2.353904    2.694044
C       0.094223   -1.012576    2.497251
C       0.039020   -0.796373    1.155135
H       0.964672    1.871531    0.401342
H       0.000518    1.721185   -1.090862
H      -0.817530    1.915215    0.481410
H       0.148338   -0.407964    3.386132
