18

O      -0.155007    1.469720    0.030082
C       0.035778    0.074083    0.117729
C      -1.273055   -0.680426   -0.124896
N      -1.810995   -0.247913   -1.413207
C      -2.412431   -1.061154   -2.145825
O      -2.679069   -2.422445   -1.942873
C      -3.198654   -2.515275   -3.294942
C      -4.414358   -1.674073   -3.417261
C      -3.024487   -1.028426   -3.505477
H      -0.687205    1.600797   -0.766001
H       0.792273   -0.275928   -0.604733
H       0.411894   -0.142944    1.123430
H      -1.117207   -1.765555   -0.071177
H      -1.990096   -0.399723    0.657112
H      -2.906518   -3.373655   -3.883142
H      -4.935412   -1.722723   -4.368592
H      -5.042871   -1.508325   -2.548206
H      -2.689615   -0.452594   -4.355009
