22

C       2.425126    0.817518    0.780907
C       1.392443   -0.309149    0.612948
C       0.051847    0.139979    0.997708
C      -1.040446    0.517528    1.327445
N       1.390939   -0.737512   -0.790889
C       2.338419   -1.783697   -1.175609
C       0.868147   -2.053945   -1.183610
C       0.290164   -3.013251   -0.157865
C       0.115997   -2.033334   -2.500196
H       3.420563    0.450063    0.514631
H       2.174487    1.654466    0.125449
H       2.445444    1.168341    1.815858
H       1.679218   -1.129363    1.293488
H      -2.007193    0.848313    1.616508
H       2.885336   -1.614323   -2.100240
H       2.924890   -2.254407   -0.385904
H       0.893510   -3.078926    0.750286
H      -0.723173   -2.712271    0.127692
H       0.232372   -4.019929   -0.585354
H       0.139286   -3.018689   -2.979485
H      -0.933231   -1.761125   -2.339807
H       0.553861   -1.300447   -3.181676
