19

N       0.079350    1.241152   -0.208014
C      -0.057077    0.040108    0.428451
O       0.761075   -0.365612    1.230909
C      -1.334394   -0.731133    0.097125
C      -1.077519   -2.237879    0.001763
C      -2.368999   -3.056589   -0.082898
C      -2.089182   -4.519760   -0.424893
N      -2.881500   -5.429241    0.216413
O      -1.249246   -4.850922   -1.238996
H       0.924480    1.765780   -0.049728
H      -0.528958    1.523379   -0.955711
H      -2.043490   -0.522693    0.910103
H      -1.798010   -0.354197   -0.822624
H      -0.469294   -2.466434   -0.878224
H      -0.490143   -2.540610    0.873484
H      -2.948835   -2.969803    0.844039
H      -3.008225   -2.665904   -0.886608
H      -3.489729   -5.170766    0.972710
H      -2.706178   -6.407250    0.051216
