15

C      -0.069919    1.581225   -0.054923
C       0.038824    0.044794   -0.025482
C       0.685050   -0.475030   -1.226733
C       1.218174   -0.898894   -2.216296
C       0.794828   -0.466606    1.241158
O       2.112682    0.019109    1.351015
C       0.008034   -0.163521    2.456399
N      -0.602921    0.106094    3.399601
H       0.919446    2.040375   -0.139150
H      -0.651959    1.899240   -0.922171
H      -0.564594    1.951119    0.848134
H      -0.975169   -0.372644    0.035444
H       1.686684   -1.275981   -3.091756
H       0.888944   -1.554045    1.164007
H       2.080391    0.964903    1.533456
