17

O      -0.064532    1.378748   -0.076612
C      -0.036015   -0.016897    0.013909
C      -0.506411   -0.827264   -1.162193
C      -1.337368   -0.779959    0.109926
C      -1.137663   -1.894419    1.111927
N      -0.119243   -2.896630    0.722904
C       0.246331   -1.811551    1.656216
C       0.961650   -0.629673    1.012601
H       0.572018    1.645290   -0.748413
H      -0.893605   -0.256770   -2.000335
H      -0.008976   -1.758222   -1.404782
H      -2.284804   -0.255472    0.095430
H      -1.977961   -2.214364    1.718026
H      -0.270595   -3.754110    1.248104
H       0.479305   -2.071944    2.683928
H       1.910545   -0.921529    0.549628
H       1.174259    0.129445    1.772472
