22

C      -0.057438    1.546867   -0.077687
C       0.059313    0.039092    0.003047
C       0.119615   -0.642671   -1.357467
C       0.430962   -2.132502   -1.230897
O       1.608533   -2.319362   -0.463597
C       1.423933   -1.990111    0.898323
C       0.726933   -0.647097    1.153591
C       1.312838    0.106876    2.329857
N      -0.748659   -0.700536    0.997958
H       0.803134    1.979675   -0.599801
H      -0.955666    1.822923   -0.642883
H      -0.126138    2.019243    0.905078
H      -0.833470   -0.497672   -1.882774
H       0.903127   -0.165315   -1.958737
H      -0.418083   -2.661192   -0.774053
H       0.628348   -2.573471   -2.212131
H       0.845199   -2.776834    1.410308
H       2.429100   -1.972354    1.331635
H       2.349525    0.402723    2.134554
H       0.745194    1.007469    2.575619
H       1.316283   -0.531560    3.221918
H      -1.183874   -0.042774    1.642345
