14

N      -0.076253    1.188721   -0.439026
C      -0.008433    0.015406    0.005328
O       1.172356   -0.636386    0.255501
C       1.095980   -1.966358    0.803097
C       0.032264   -1.980911    1.931449
C      -1.028067   -1.993361    0.798470
O      -1.155563   -0.671012    0.256712
C       0.046872   -2.754597   -0.025271
O       0.061659   -3.660120   -0.797976
H       0.858877    1.563812   -0.579680
H       2.115773   -2.316381    0.947699
H       0.042661   -2.916601    2.495087
H       0.018933   -1.118163    2.599171
H      -2.034658   -2.379832    0.941554
