12

N       0.005656   -1.049056   -0.581813
C      -0.004106    0.039284   -0.195919
C       0.002915    1.413159    0.305089
C       1.387460    2.031970    0.223483
O       1.771854    2.597967   -1.020025
C       1.579165    3.491119    0.079164
C       0.445271    4.387343    0.000435
N      -0.458440    5.106623   -0.038738
H      -0.709297    2.015553   -0.266736
H      -0.333109    1.410006    1.348795
H       2.176253    1.479447    0.733167
H       2.485466    3.944892    0.474711
