23

C       0.097450    1.537955   -0.071722
C      -0.003582    0.015103    0.073652
O       0.610174   -0.412028    1.281312
C      -1.446474   -0.525385    0.024265
O      -2.129712   -0.090577    1.221118
C      -2.249994   -0.130122   -1.230933
C      -3.307452   -1.235743   -1.358282
C      -2.499911   -2.507285   -1.048255
C      -1.503036   -2.078684    0.056345
H       1.141115    1.843062    0.036900
H      -0.265268    1.883325   -1.045079
H      -0.473425    2.050646    0.711998
H       0.563543   -0.454390   -0.740367
H      -0.065990   -0.292566    1.962233
H      -2.312565    0.851430    1.132091
H      -2.666878    0.880174   -1.158067
H      -1.588166   -0.144304   -2.106913
H      -4.083479   -1.085779   -0.599680
H      -3.795360   -1.257773   -2.336600
H      -3.127360   -3.349713   -0.745479
H      -1.955635   -2.822479   -1.946388
H      -0.511582   -2.513747   -0.084455
H      -1.848829   -2.383294    1.046629
