21

C      -0.116476    1.596271   -0.189583
C      -0.115832    0.135573    0.267424
C      -1.419125   -0.577276   -0.064969
O      -1.334328   -1.915859    0.391644
C      -2.492269   -2.666363    0.162892
C      -2.748781   -3.172497   -1.298676
C      -2.891498   -4.585013   -0.708778
O      -3.329087   -5.616852   -1.126827
C      -2.360067   -4.128982    0.658067
H       0.828298    2.086117    0.062210
H      -0.252759    1.676365   -1.273742
H      -0.922268    2.164397    0.288215
H       0.709288   -0.410493   -0.203977
H       0.047205    0.074427    1.349444
H      -2.271297   -0.067322    0.416496
H      -1.602444   -0.553428   -1.152306
H      -3.376338   -2.159346    0.575979
H      -3.603478   -2.785745   -1.858196
H      -1.844630   -3.088330   -1.912126
H      -1.305820   -4.396349    0.788572
H      -2.921899   -4.439465    1.541299
