18

C       0.094159    1.522449    0.082806
C      -0.062563    0.042298    0.014829
C      -1.155414   -0.715231   -0.148065
C      -0.769656   -2.169704   -0.125040
C      -1.119915   -3.011274   -1.374551
O      -0.702028   -4.346249   -1.227891
C       0.755655   -2.113371    0.033122
O       1.539127   -3.045540    0.004132
N       1.078285   -0.782652    0.152760
H       0.768123    1.888763   -0.701333
H      -0.873169    2.012346   -0.042516
H       0.516457    1.834161    1.045672
H      -2.163520   -0.341681   -0.251622
H      -1.186813   -2.699507    0.741967
H      -2.206219   -3.020903   -1.514178
H      -0.679183   -2.531245   -2.264236
H       0.220429   -4.314091   -0.929783
H       2.031064   -0.456681    0.185442
