18

C       0.016222    1.549284   -0.035649
C       0.009860    0.034452    0.141231
O       0.596196   -0.349275    1.381454
C      -1.429201   -0.541107   -0.015978
O      -2.014770   -0.048704   -1.190943
C      -1.434079   -2.079031   -0.066084
C      -1.102528   -2.867811    1.171472
O      -1.726130   -2.607085   -1.121005
H       1.038367    1.929535    0.043199
H      -0.402010    1.824287   -1.004727
H      -0.593466    2.029845    0.741248
H       0.640331   -0.424631   -0.629697
H       0.215279    0.206022    2.071018
H      -2.013624   -0.217739    0.863047
H      -2.127512   -0.834162   -1.754765
H      -0.135761   -2.547884    1.568680
H      -1.846052   -2.655437    1.949027
H      -1.107750   -3.934571    0.944565
