13

N      -0.053134    1.364881    0.010147
C       1.268699    1.827895   -0.000122
C       2.142619    0.766543   -0.014320
C       1.334293   -0.413717   -0.012883
C       0.015287    0.004600    0.002252
N      -0.766479   -1.119399    0.003668
C       0.141164   -2.177327   -0.010906
N       1.393545   -1.796117   -0.021096
H      -0.870264    1.947157    0.021979
H       1.458010    2.889109    0.003762
H       3.218454    0.841239   -0.024413
H      -1.768255   -1.195173    0.012891
H      -0.210250   -3.198575   -0.013011
