14

O      -0.064757    1.348208    0.011341
C       0.026394   -0.008208    0.002982
C       1.210483   -0.680768   -0.007937
N       1.242002   -2.049606   -0.016095
C       0.085004   -2.781813   -0.013406
C      -1.130969   -2.168775   -0.002634
O      -2.310666   -2.844458    0.000437
C      -1.266924   -0.705695    0.006676
O      -2.345433   -0.127989    0.016385
H       0.818713    1.731498    0.008110
H       2.173058   -0.182106   -0.010779
H       2.127316   -2.523827   -0.023835
H       0.203219   -3.859402   -0.020357
H      -2.140236   -3.792272   -0.006154
