13

C      -0.058016    1.414124    0.009548
N      -0.027724   -0.039561    0.001068
N      -1.220899   -0.676629    0.005473
C      -1.161603   -1.965652   -0.001530
C       0.095210   -2.695787   -0.012897
N       0.129661   -3.972079   -0.021869
N       1.270133   -1.892046   -0.015162
N       1.177478   -0.628561   -0.008229
H       0.973596    1.761986    0.002841
H      -0.585801    1.781572   -0.874247
H      -0.570809    1.771846    0.906118
H      -2.101752   -2.508225    0.001708
H       1.105380   -4.280659   -0.029698
