20

C       0.070454    1.560897    0.069692
C      -0.063524    0.033618   -0.073845
C       0.602646   -0.487526   -1.263618
C       1.160283   -0.880524   -2.256350
C       1.830184   -1.399358   -3.442765
C       2.003606   -2.918165   -3.377859
O       2.671330   -3.317291   -4.574683
C       2.795896   -4.642659   -4.775711
N       3.415191   -5.073328   -5.787518
H       1.121600    1.853856    0.137225
H      -0.366874    2.071503   -0.792430
H      -0.442950    1.905322    0.972282
H       0.349224   -0.454908    0.818198
H      -1.126288   -0.239420   -0.101175
H       1.264215   -1.151691   -4.348807
H       2.819274   -0.940819   -3.561219
H       2.598195   -3.195234   -2.498457
H       1.025292   -3.408999   -3.301269
H       2.314739   -5.252067   -3.997463
H       3.407092   -6.091137   -5.791049
