21

C       0.003075    1.638169    0.169093
C       0.051551    0.113387    0.005416
C       0.814606   -0.555856    1.158235
C      -1.360299   -0.471924   -0.101838
C      -2.296056   -0.102651   -1.272787
C      -1.762881   -0.625437   -2.559152
C      -2.493606   -1.596199   -1.636393
C      -1.586085   -1.960920   -0.499827
O      -1.270023   -2.999030    0.012611
H       1.012801    2.058512    0.222263
H      -0.515809    2.116685   -0.668014
H      -0.521112    1.915305    1.091667
H       0.588589   -0.108306   -0.926709
H       0.815584   -1.643922    1.053328
H       1.851685   -0.207032    1.194972
H       0.348999   -0.315820    2.121824
H      -1.882918   -0.329191    0.854937
H      -3.074900    0.647035   -1.228782
H      -2.324343   -0.370475   -3.452247
H      -0.695421   -0.728457   -2.727172
H      -3.372776   -2.133834   -1.968162
