16

O      -0.070602   -0.018884    0.085055
C      -0.047656    1.166997    0.025223
C      -1.058781    2.338813    0.100102
N       0.025396    2.978381    0.932109
C       0.997759    2.303469   -0.000501
C       0.670710    2.944516   -1.376169
O       0.614131    2.039589   -2.499593
C      -0.832500    2.118066   -2.556102
C      -0.882126    3.000935   -1.288159
H      -2.053364    2.247646    0.532565
H       0.036165    3.995497    0.837294
H       2.032421    2.191944    0.316560
H       1.253059    3.845198   -1.595109
H      -1.165774    2.623577   -3.469297
H      -1.302356    1.130414   -2.492841
H      -1.395865    3.959400   -1.370701
