15

O       0.032750    0.057377    0.023806
C       0.027441    1.254798    0.016232
C      -1.163045    2.245903    0.059694
N      -0.450177    3.555160    0.014794
C       0.589950    3.259102   -1.056671
C       1.194506    2.241715   -0.044953
C       0.667907    3.268399    1.017181
C       1.528325    4.418223    1.260052
N       2.232442    5.309768    1.471294
H      -1.824347    2.138669   -0.803494
H      -1.757849    2.143855    0.971296
H       0.185306    2.885660   -1.999755
H       1.217906    4.133845   -1.229023
H       2.205575    1.842470   -0.066908
H       0.319869    2.873505    1.976214
