21

O      -0.104402    1.477752    0.377986
C      -0.017626    0.096151    0.172122
C      -0.683727   -0.845224    1.145262
C      -1.278086   -0.611572   -0.233150
C      -2.582578    0.142169   -0.386383
C      -3.810631   -0.740369   -0.136241
C      -5.132988    0.032359   -0.317757
C      -6.313705   -0.788398   -0.078131
C      -7.269924   -1.488174    0.125130
H       0.449212    1.699321    1.133650
H       0.912030   -0.232769   -0.292687
H      -0.211755   -1.795413    1.370722
H      -1.200851   -0.384384    1.981482
H      -1.142470   -1.421785   -0.945826
H      -2.586287    0.996686    0.298450
H      -2.637802    0.566121   -1.398514
H      -3.804468   -1.598357   -0.818992
H      -3.772447   -1.153692    0.877852
H      -5.145083    0.896555    0.359736
H      -5.176470    0.446712   -1.333781
H      -8.121803   -2.096284    0.302136
