18

C       0.075204    1.485579    0.144527
C       0.034238   -0.039489    0.020416
C       0.664234   -0.551316   -1.271350
O       2.033912   -0.134551   -1.317426
C       2.829577   -1.109900   -1.977829
C       2.068190   -2.410676   -1.848630
O       1.642519   -2.675074   -0.506973
C       0.716788   -2.061527   -1.412634
H       1.106394    1.845885    0.113757
H      -0.473273    1.965438   -0.674130
H      -0.375853    1.814107    1.085606
H       0.563888   -0.506840    0.857189
H      -1.004321   -0.392847    0.056102
H       0.115561   -0.147042   -2.141750
H       2.967964   -0.871526   -3.045582
H       3.812285   -1.126386   -1.494724
H       2.308885   -3.273850   -2.462882
H      -0.172497   -2.634305   -1.661452
