21

C       0.079687    1.501619   -0.140193
C       0.005456   -0.017184    0.039989
O       0.563192   -0.422387    1.290446
C      -1.407268   -0.557466    0.015494
C      -2.344549   -0.450957   -1.233672
C      -3.099300   -1.554876   -0.452862
C      -1.716338   -2.092605   -0.018821
O      -3.572427   -0.870854    0.717885
C      -2.395280   -0.131012    1.118012
H       1.123727    1.835263   -0.145253
H      -0.369016    1.808047   -1.090336
H      -0.436555    2.017952    0.674096
H       0.560577   -0.492472   -0.786771
H       1.461702   -0.081345    1.340478
H      -2.875276    0.488345   -1.409029
H      -1.869733   -0.810872   -2.148913
H      -3.897660   -2.165418   -0.871225
H      -1.174935   -2.608236   -0.814712
H      -1.665926   -2.650526    0.918118
H      -2.071300   -0.434842    2.117690
H      -2.616289    0.942655    1.120598
