20

C      -0.107171    1.541066   -0.033016
C      -0.055320    0.008932   -0.023429
C       0.990382   -0.509404    0.969503
C      -1.460500   -0.567843    0.279386
C      -1.547872   -2.019197    0.167799
C      -1.605464   -3.216868    0.055615
C      -1.684636   -4.667565   -0.052482
O      -1.908264   -5.038394   -1.409019
H       0.872281    1.965327   -0.275531
H      -0.826423    1.914860   -0.769614
H      -0.402111    1.930143    0.949196
H       0.224717   -0.334750   -1.027486
H       1.022515   -1.602436    0.973895
H       1.988891   -0.138955    0.716139
H       0.760335   -0.174562    1.988593
H      -1.762356   -0.260327    1.290986
H      -2.190432   -0.112912   -0.403030
H      -0.750239   -5.110652    0.329900
H      -2.496830   -5.033555    0.597227
H      -1.956428   -5.999464   -1.437621
