15

C      -0.258654    1.434501    0.010814
N       0.014736   -0.008197   -0.000401
C       0.272856   -0.613311    1.128816
N       0.290623    0.000333    2.341887
H       0.324703   -0.601842    3.147723
H      -0.201712    0.867966    2.481391
C      -0.084457   -0.707743   -1.244662
C      -0.070046    0.019063   -2.434955
N      -0.075107    0.655324   -3.412981
C      -0.090354   -2.100956   -1.187372
N      -0.087258   -3.258021   -1.035521
H       0.507917    1.947352    0.596751
H      -0.237815    1.804775   -1.011735
H      -1.248803    1.626411    0.437321
H       0.510254   -1.668711    1.092302
