17

C      -0.041138    1.573238   -0.056415
C       1.524792    1.376086    0.010876
C       1.185272    0.166926    0.969112
C      -0.045091   -0.003616   -0.003713
C       0.699973   -0.300551   -1.301937
C       1.721170    0.604005   -1.282865
N       2.430455    0.387002   -2.429355
C       1.786566   -0.649970   -3.079811
N       0.727662   -1.087897   -2.415135
H      -0.445193    2.034585    0.850889
H      -0.449759    2.048782   -0.950696
H       2.202894    2.177448    0.298832
H       1.905816   -0.652327    1.019032
H       0.896928    0.495575    1.973180
H      -0.929363   -0.573355    0.272473
H       3.252616    0.865679   -2.756564
H       2.141904   -1.029890   -4.025174
