15

C      -0.041331    1.426363   -0.058159
N       0.160850   -0.008418    0.038656
C       0.661900   -0.701269   -1.027812
N       1.227717   -0.099587   -2.069637
N       1.640420   -1.126787   -2.866054
C       1.347122   -2.339324   -2.379458
C       0.700248   -2.129380   -1.169713
C       0.182203   -3.078887   -0.267124
N      -0.266913   -3.819798    0.504209
H       0.907653    1.914535   -0.293782
H      -0.764637    1.706150   -0.836999
H      -0.394062    1.796661    0.906480
H      -0.499880   -0.519379    0.602553
H       2.107169   -0.907364   -3.728867
H       1.600796   -3.252993   -2.892362
