19

C       0.344138    1.451646   -0.125289
N       0.333132    0.021520   -0.355171
C      -0.702441   -0.620894   -0.959341
O      -1.712241   -0.077340   -1.373377
C      -0.522806   -2.129255   -1.020885
C      -0.526487   -2.901050   -2.359925
C       0.862496   -2.267065   -2.579993
N       0.926015   -2.663904   -1.085914
C       0.257593   -3.968780   -1.563657
H      -0.600034    1.848783   -0.500856
H       0.430848    1.682476    0.942220
H       1.171883    1.936690   -0.654923
H       1.120978   -0.544817   -0.076081
H      -1.097214   -2.583279   -0.205343
H      -1.349717   -3.028333   -3.067312
H       1.582205   -2.810903   -3.197057
H       0.925282   -1.191823   -2.755415
H      -0.261129   -4.509869   -0.767677
H       0.938328   -4.622544   -2.114704
