19

O      -0.061476    0.070909   -0.669721
C       0.011650    1.157578   -0.150002
C       1.272656    1.911669    0.027304
C       1.230086    3.436413   -0.021321
C       1.533349    2.759716    1.273852
C       0.579612    2.820436    2.450106
C       0.862020    4.052778    3.338513
C      -0.036040    4.140496    4.482683
C      -0.792251    4.187419    5.415676
H      -0.903093    1.675073    0.219964
H       2.133197    1.417391   -0.410228
H       2.018904    3.936530   -0.571010
H       0.248788    3.889295   -0.133027
H       2.581431    2.755981    1.565388
H      -0.459164    2.866245    2.110328
H       0.669643    1.914023    3.058960
H       1.901748    4.017269    3.689804
H       0.778446    4.963514    2.731894
H      -1.453363    4.239510    6.244875
