18

C      -0.229250    1.508399    0.049115
C      -0.064121    0.032274   -0.032308
C      -0.106886   -0.829444   -1.055031
C       0.171130   -2.182762   -0.383836
C      -0.766260   -2.074861    0.870275
C       0.235771   -0.906688    1.159599
N       1.293691   -1.780333    0.537363
C       2.148174   -2.629752    1.169826
O       2.507012   -3.708744    0.744074
H       0.679290    1.989598    0.432923
H      -0.450970    1.937311   -0.931789
H      -1.042379    1.784889    0.732340
H      -0.276111   -0.654884   -2.107407
H       0.302649   -3.089744   -0.966649
H      -1.813449   -1.816237    0.699470
H      -0.657267   -2.916219    1.560650
H       0.422378   -0.492800    2.150252
H       2.544883   -2.182840    2.105982
