23

C       0.010936    1.609752    0.007692
C       0.042751    0.081140    0.003286
C       0.729296   -0.499274   -1.243326
C       1.022984   -1.988582   -1.071087
C       0.214053   -2.807080   -0.003568
C       1.390074   -3.817602    0.008670
C       2.051749   -2.415123    0.021765
C       0.994640   -1.995394    1.089931
C       0.696391   -0.507186    1.263802
H       1.026803    2.022172    0.022287
H      -0.493350    2.000782   -0.882912
H      -0.516514    1.995196    0.887246
H      -0.995579   -0.279768   -0.011481
H       0.097432   -0.334630   -2.124615
H       1.671571    0.033215   -1.440045
H       1.153794   -2.498709   -2.031594
H      -0.852418   -3.042634   -0.018296
H       1.505548   -4.422385    0.912827
H       1.529269   -4.416686   -0.895941
H       3.120128   -2.184365    0.036502
H       1.100266   -2.511577    2.050303
H       1.633120    0.023989    1.488557
H       0.041585   -0.348073    2.129217
