20

C      -0.016588    1.569603    0.255608
C       1.557010    1.603078    0.266209
C       1.538595    0.129465   -0.176762
N       0.805607   -0.603515    0.900950
C       0.055549    0.094811   -0.174228
C      -0.720244   -0.662486   -1.227971
C       0.126629   -0.853432   -2.516042
C       1.612020   -1.056737   -2.284864
C       2.281712   -0.587046   -1.225231
H      -0.521246    1.760073    1.206211
H      -0.437264    2.217796   -0.517606
H       1.966692    2.275893   -0.490202
H       2.036694    1.795478    1.228655
H       0.837756   -1.591043    0.648907
H      -1.020977   -1.643448   -0.841587
H      -1.649274   -0.137111   -1.473083
H      -0.271925   -1.694336   -3.094392
H       0.004650    0.025568   -3.166534
H       2.148947   -1.594803   -3.062794
H       3.354269   -0.739855   -1.130199
