22

C      -0.441945    1.484597    0.074369
C       0.057226    0.060476    0.019277
N       1.498202   -0.168786   -0.213696
C       0.896074   -0.589634    1.067224
C       1.453678    0.121201    2.272343
O       2.079693    1.335187    1.958932
C       0.736623    0.102611    3.590500
C       2.044818   -0.654890    3.436201
C       2.090931   -2.163644    3.530012
H      -0.539544    1.895829   -0.936321
H      -1.430110    1.517521    0.546024
H       0.235938    2.115045    0.650294
H      -0.611202   -0.623101   -0.504704
H       1.661928   -0.957905   -0.830702
H       0.729086   -1.653987    1.210051
H       2.442983    1.200994    1.068874
H       0.736435    1.026560    4.158015
H      -0.177957   -0.478591    3.666843
H       2.906382   -0.147551    3.861669
H       1.175376   -2.627378    3.148481
H       2.935732   -2.580405    2.969627
H       2.196086   -2.482012    4.573422
