16

O      -0.090267    1.454675    0.088982
C       0.029300    0.045840   -0.003667
C      -1.390318   -0.531005   -0.038253
C      -1.407468   -2.023940   -0.117562
C      -1.373099   -2.897469   -1.189575
C      -1.364862   -4.184963   -0.613415
N      -1.392271   -4.135119    0.715254
N      -1.413286   -2.815695    0.988252
H       0.792885    1.834919    0.081800
H       0.568197   -0.259992   -0.913153
H       0.576421   -0.372325    0.856296
H      -1.924793   -0.184703    0.854155
H      -1.914010   -0.107955   -0.900590
H      -1.362532   -2.633731   -2.235087
H      -1.345833   -5.143701   -1.110912
H      -1.452711   -2.518530    1.949082
