18

C       0.632443    1.129434   -0.232071
O       0.659165   -0.268465    0.028581
C       0.393759   -0.610632    1.353679
C       0.249444   -2.149774    1.420434
N       1.454387   -2.836101    1.878974
C       2.657534   -2.091608    1.512041
C       2.660517   -0.704106    2.138228
O       3.613256   -0.151090    2.609264
O       1.423430   -0.120302    2.226844
H       1.414307    1.659441    0.322027
H       0.797743    1.251278   -1.303953
H      -0.344300    1.558056    0.033890
H      -0.506315   -0.092211    1.710333
H      -0.580869   -2.413812    2.079368
H      -0.007271   -2.480403    0.407745
H       1.426874   -2.929256    2.888751
H       3.555716   -2.613715    1.846676
H       2.702711   -1.998929    0.420872
