17

O       0.183878    1.404844   -0.191562
C       0.032583    0.026283   -0.017454
C       0.203045   -0.622804    1.388287
C      -0.886966    0.036466    2.242725
C      -2.006928   -0.974023    2.364430
O      -1.585337   -2.214996    1.869173
C      -0.716659   -1.782747    0.854679
C      -1.383879   -0.620110    0.030582
C      -2.058082    0.038420    1.240799
H      -0.375128    1.839512    0.462854
H       0.672217   -0.449905   -0.766011
H       1.176411   -0.797180    1.843591
H      -0.700285    0.808318    2.976411
H      -2.709240   -1.023785    3.185250
H      -0.267501   -2.619711    0.328027
H      -1.984662   -0.791809   -0.860893
H      -2.810334    0.811835    1.171195
