16

C      -0.091457    1.352108   -0.280571
O       0.913768    1.649656    0.715432
C       1.384717    0.283462    0.662943
C       0.071545   -0.170398   -0.028305
C      -0.936698   -0.737455    0.906872
N      -1.639658   -1.846637    0.750331
C      -2.396757   -1.891970    1.883749
N      -2.212499   -0.891930    2.728093
N      -1.271190   -0.159625    2.084497
H      -1.059873    1.802957   -0.045045
H       0.227377    1.663415   -1.283793
H       2.270406    0.184408    0.022033
H       1.600466   -0.122942    1.655342
H       0.157616   -0.819447   -0.898096
H      -3.101369   -2.683705    2.089512
H      -0.913659    0.691845    2.489378
