20

C      -0.085133    1.535782   -0.018297
C      -0.036958    0.013492   -0.057450
C       0.823899   -0.514349   -1.198911
C       0.684197   -2.014777   -1.413580
O       1.294829   -2.304756   -2.665830
C       1.354610   -2.838273   -0.305446
N       0.854805   -2.739229    1.050126
C       0.513990   -1.680703    1.642844
O       0.412612   -0.381035    1.254815
H       0.922986    1.949281    0.082784
H      -0.529679    1.924921   -0.938485
H      -0.682806    1.875683    0.830821
H      -1.057495   -0.380366   -0.176776
H       0.513793   -0.012324   -2.121742
H       1.875587   -0.255001   -1.025760
H      -0.389886   -2.267674   -1.443413
H       1.239037   -3.254661   -2.813039
H       1.303227   -3.897836   -0.591048
H       2.423204   -2.577034   -0.303125
H       0.282392   -1.737174    2.708196
