14

C      -0.266851    1.665585   -0.028364
C      -0.011302    0.165830   -0.077256
C       0.836889   -0.353819   -1.271260
C       1.884348   -0.643193   -0.200554
O       2.986342   -1.081895   -0.142819
O       1.108672   -0.191451    0.836193
C      -1.195944   -0.617074    0.231254
C      -2.188371   -1.250590    0.469126
H       0.654315    2.211112   -0.250487
H      -1.030646    1.940066   -0.761244
H      -0.618566    1.955998    0.964352
H       0.452609   -1.239903   -1.776317
H       1.128810    0.400240   -2.003920
H      -3.061471   -1.815646    0.686605
