18

C       0.139820    1.459993    0.090102
O       1.038969    0.430915   -0.332451
C      -0.271449    0.050492    0.093024
C      -0.392401   -0.774233    1.351146
C       0.082935   -2.219537    1.154000
C       1.445544   -1.901281    1.634918
C       0.797336   -0.655668    2.349248
C       0.396479   -1.658660    3.442348
N       0.573675   -2.783143    2.462575
H       0.398831    1.950122    1.027110
H      -0.213155    2.123550   -0.697983
H      -0.918108   -0.276432   -0.724919
H      -1.397106   -0.632813    1.773096
H      -0.236936   -2.940550    0.412790
H       2.437351   -2.156068    1.289715
H       1.260552    0.304239    2.564879
H       1.146810   -1.770347    4.229085
H      -0.601644   -1.574315    3.889423
