13

N      -0.069537    1.250858    0.377789
C      -0.051217    0.052976   -0.043179
O       1.134038   -0.545229   -0.446912
N       1.216131   -1.859392   -0.918931
C       0.122571   -2.528422   -0.972427
C      -1.178294   -2.021963   -0.581689
C      -2.374263   -2.889114   -0.687445
O      -2.338515   -4.026439   -1.090220
C      -1.251659   -0.755858   -0.127873
H       0.866802    1.658575    0.365988
H       0.217768   -3.543660   -1.342312
H      -3.322035   -2.409137   -0.364105
H      -2.178606   -0.289296    0.187418
