16

O      -0.093741    1.411363    0.052794
C       0.000197    0.035268    0.016994
C      -1.312450   -0.786367    0.072423
C      -0.718124   -1.769586   -0.901011
C       0.513369   -0.852368   -1.143971
O       1.703979   -1.242587   -0.437703
C       1.090194   -0.795737    0.808399
C       0.303512   -1.961941    1.385149
N      -0.892593   -2.100340    0.524600
H       0.762400    1.788209   -0.179046
H      -2.321145   -0.420266    0.218435
H      -1.193591   -2.421476   -1.624959
H       0.678277   -0.519497   -2.170660
H       1.802998   -0.296000    1.469635
H       0.890375   -2.883658    1.377399
H      -0.043401   -1.763364    2.405290
