17

N      -0.063082    1.436959    0.012368
C       0.035662   -0.021117   -0.032474
C       0.191262   -0.570235    1.423161
C      -1.350231   -0.671707    1.532465
C      -1.418682   -0.642672   -0.023426
C      -2.471741    0.105034   -0.684023
N      -3.297063    0.715127   -1.217180
C       0.945157   -0.538202   -1.047279
C       1.702501   -0.948245   -1.887583
H       0.862006    1.829559    0.164150
H      -0.386896    1.790147   -0.884835
H       0.676016   -1.548362    1.428818
H       0.703741    0.098473    2.115982
H      -1.769683   -1.555537    2.013377
H      -1.790011    0.227106    1.962842
H      -1.381280   -1.654872   -0.432928
H       2.370355   -1.307075   -2.631649
