17

C      -0.023371    1.613680    0.042560
C       0.113150    0.098331   -0.069010
C       0.482916   -0.752700   -1.242525
C       1.784107   -0.358895   -1.960188
C       2.557557    0.764266   -1.379270
N       2.616124   -0.552669   -0.720567
C       1.328493   -0.829282    0.037329
C       1.383180   -1.841907    1.040189
N       1.406812   -2.659291    1.859949
H       0.133321    2.119991   -0.911797
H      -1.038451    1.853383    0.371844
H       0.663860    2.037743    0.780801
H      -0.680148   -0.407857    0.479507
H      -0.166386   -1.523081   -1.637324
H       2.078990   -0.838220   -2.887142
H       3.496944    0.991000   -1.876784
H       2.102612    1.609190   -0.888179
