17

C      -0.002894    1.530222   -0.138527
C       1.543637    1.539778    0.063595
O       1.922780    1.838170    1.450616
C       1.475869    0.572168    1.797186
N       0.797546    0.233583    2.804044
C      -0.012433   -0.928568    2.409644
C      -0.876746   -0.523806    1.168145
N      -0.054469    0.044755    0.082755
C       1.395755    0.046050    0.383912
H      -0.541380    2.136340    0.598592
H      -0.328549    1.800120   -1.147108
H       2.207621    2.006349   -0.659083
H       0.599976   -1.802461    2.141791
H      -0.659448   -1.226941    3.237551
H      -1.416266   -1.407261    0.806994
H      -1.623375    0.216857    1.477680
H       2.012509   -0.776857    0.023761
