20

C      -0.060750    1.031467    0.556805
O      -0.184648    0.010673   -0.417206
C      -1.378441   -0.688406   -0.319559
C      -1.466754   -1.984923   -1.027198
C      -1.424486   -1.990217    0.503740
C      -0.152149   -2.462962    1.176461
C      -2.756703   -2.233561    1.150637
N      -2.738505   -2.873183    2.361084
O      -3.801057   -1.850953    0.645865
H       0.889854    1.536633    0.372203
H      -0.877343    1.763140    0.474370
H      -0.061201    0.624567    1.577519
H      -2.278775   -0.078108   -0.267465
H      -2.411837   -2.241013   -1.490187
H      -0.571204   -2.333771   -1.529734
H       0.717829   -2.066872    0.648362
H      -0.087819   -2.115420    2.214063
H      -0.072796   -3.556902    1.175746
H      -1.924984   -3.361125    2.691163
H      -3.632762   -3.129517    2.747435
