23

C      -0.126064    1.520692    0.122347
C       0.103031    0.012016   -0.047919
C       0.761742   -0.599280    1.149664
C       0.096401   -1.058214    2.416478
C       1.004030   -2.009577    1.649786
C       0.569055   -3.361197    1.161778
C       2.447483   -1.540118    1.873846
C       3.510040   -2.135278    0.971549
O       2.104486   -0.185500    1.448247
H       0.822251    2.033094    0.307563
H      -0.578513    1.952649   -0.775205
H      -0.788280    1.723606    0.970004
H      -0.851803   -0.498447   -0.221553
H       0.728261   -0.169210   -0.930899
H       0.406559   -0.636983    3.369770
H      -0.962448   -1.289895    2.339460
H      -0.469321   -3.335346    0.815563
H       1.186226   -3.713993    0.328722
H       0.625682   -4.111806    1.959770
H       2.785011   -1.543017    2.919643
H       3.178519   -2.145726   -0.071082
H       4.425077   -1.538657    1.033583
H       3.748718   -3.160759    1.274611
