22

C       0.119786    1.540262   -0.092631
C       0.058398    0.012121   -0.020615
C       0.695228   -0.554956    1.252243
C       0.635786   -2.084244    1.334952
C       1.317723   -2.631268    2.575780
C       1.581815   -4.151820    2.664991
C       3.060512   -3.741527    2.806740
O       2.742673   -2.351228    2.596249
H       1.155922    1.895425   -0.066502
H      -0.338578    1.917087   -1.012461
H      -0.405921    1.997844    0.752968
H      -0.987978   -0.316488   -0.081665
H       0.561063   -0.416491   -0.897855
H       1.744930   -0.242540    1.311974
H       0.196231   -0.124068    2.131770
H      -0.409730   -2.424307    1.335294
H       1.113162   -2.523785    0.449072
H       0.839805   -2.219558    3.477886
H       1.139156   -4.671497    3.515907
H       1.346113   -4.696643    1.748066
H       3.496014   -3.914820    3.799623
H       3.752778   -4.124390    2.047642
