20

C      -0.031685    1.492152   -0.251714
C       0.138716   -0.000733   -0.072591
C       1.498971   -0.656911   -0.072874
C       0.679235   -0.632591    1.196572
C       1.135123    0.210467    2.371762
C       0.033652   -1.961038    1.587048
O       0.888536   -2.833183    2.304721
C      -1.224132   -1.728577    2.336026
N      -2.185607   -1.531204    2.946338
H       0.794291    2.058355    0.186884
H      -0.068156    1.744246   -1.316884
H      -0.961687    1.845534    0.206221
H      -0.647580   -0.577708   -0.555735
H       1.632543   -1.601529   -0.589844
H       2.369219   -0.008904   -0.107870
H       1.589219    1.146736    2.042539
H       0.299171    0.459121    3.035083
H       1.894546   -0.318200    2.960027
H      -0.226267   -2.507200    0.673981
H       1.058545   -2.448698    3.171665
