16

C       0.001103   -3.799336   -0.018683
C      -0.002149   -2.591963   -0.011895
C      -0.005868   -1.231202   -0.004225
C      -0.009226   -0.021252    0.002565
C       0.010294    1.432388    0.010212
C       1.441446    2.008265   -0.000980
C       1.422462    3.549096    0.007558
C       2.765805    4.122960   -0.002651
N       3.834832    4.561224   -0.011217
H       0.005388   -4.861063   -0.024684
H      -0.544291    1.809756   -0.860069
H      -0.526755    1.800276    0.895421
H       1.991769    1.641922    0.870156
H       1.974216    1.651410   -0.886843
H       0.876268    3.928463   -0.864404
H       0.893854    3.918944    0.894308
