15

N      -0.011434   -1.116875    0.100617
C      -0.031344    0.039032    0.073140
C      -0.007192    1.476057   -0.005469
C      -0.864889    2.237676   -1.036202
C      -0.092892    3.559161   -0.817817
N       1.295397    3.257359   -1.261069
C       1.364504    2.362904   -0.123872
C       0.416045    3.262237    0.676289
O      -0.340216    2.182553    1.222411
H      -0.781978    1.871483   -2.062507
H      -1.909380    2.250773   -0.720665
H      -0.537531    4.499311   -1.137019
H       1.378477    2.833455   -2.184008
H       2.301803    1.919830    0.205398
H       0.675487    4.064208    1.360796
