14

O       0.072955    0.095194   -0.628829
C       0.070417    1.171568   -0.136847
O      -0.952617    1.787072    0.553356
C      -0.187287    3.029660    0.687450
C       0.202351    3.321628    2.138664
N       1.467527    2.626587    2.287735
C       2.051545    2.157875    1.139720
O       3.146563    1.662566    1.037442
C       1.023897    2.368056    0.014161
H      -0.701672    3.845853    0.182677
H       0.306948    4.401903    2.303649
H      -0.563605    2.940452    2.822557
H       1.977174    2.590094    3.156483
H       1.469409    2.760155   -0.896995
