20

O      -0.023485    1.311790   -0.153862
C       0.028992   -0.099952   -0.289630
C      -1.326919   -0.649688    0.119875
C      -2.465686   -0.326139   -0.889863
C      -2.319777   -1.753451   -1.487252
C      -1.547171   -2.163660   -0.207717
N      -0.419842   -3.057605   -0.340189
C      -0.185874   -4.106467    0.497672
O      -0.861119   -4.399952    1.460377
H       0.841317    1.669478   -0.374905
H       0.260274   -0.383950   -1.331770
H       0.812742   -0.537124    0.348338
H      -1.513499   -0.366123    1.158928
H      -3.428214   -0.181086   -0.394267
H      -2.286579    0.519014   -1.556341
H      -3.227296   -2.313986   -1.721994
H      -1.673789   -1.762722   -2.371574
H      -2.204774   -2.617116    0.534737
H       0.207448   -2.933964   -1.119542
H       0.713302   -4.679264    0.193286
