19

C      -0.047566    1.426515    0.008464
C       0.066496   -0.083770    0.037083
C       1.422568   -0.679702   -0.217066
C       0.804164   -0.694024    1.195988
C       0.788279   -2.237986    1.194353
O       1.424514   -2.748217    2.319936
C      -0.421004   -2.976437    0.571066
O       0.131287   -2.811465   -0.759347
C       1.355973   -2.221101   -0.245280
H       0.846117    1.901990    0.426449
H      -0.171092    1.790386   -1.016941
H      -0.909455    1.766819    0.592083
H      -0.790972   -0.604826   -0.378504
H       2.245394   -0.087218   -0.600095
H       1.080675   -0.121273    2.073104
H       1.547001   -3.696490    2.199128
H      -0.470280   -4.038304    0.855212
H      -1.416588   -2.530515    0.674477
H       2.257243   -2.753976   -0.558026
