17

C      -0.024838    1.398036    0.103160
N      -0.007950   -0.045177   -0.010841
C      -0.056339   -0.791706   -1.123345
C      -0.013184   -2.122072   -0.720763
C      -0.041878   -3.285542   -1.592254
O      -0.108222   -3.242198   -2.804121
C       0.062961   -2.058808    0.701571
C       0.134506   -3.181776    1.687679
N       0.065446   -0.798447    1.119279
H       0.886551    1.745070    0.596447
H      -0.086116    1.831222   -0.896051
H      -0.887967    1.716660    0.692966
H      -0.116799   -0.362003   -2.110516
H       0.002369   -4.263078   -1.062258
H       1.018916   -3.805884    1.521686
H       0.182764   -2.776794    2.700329
H      -0.742049   -3.834383    1.616998
