16

O      -0.464171    0.698967   -0.838796
C       0.067167    1.115249    0.156117
C       1.363439    1.913679    0.183354
C       1.532090    2.789455   -1.045938
C       1.918980    4.006584   -0.618278
C       0.764338    4.974636   -0.312033
C       0.894897    4.327047    1.130032
C       2.292132    3.925239    0.882717
N       1.391207    2.881459    1.325186
H      -0.348450    0.934390    1.171315
H       2.157517    1.178125    0.396771
H       0.885708    2.624340   -1.901273
H       1.012823    6.037866   -0.218469
H      -0.154172    4.847484   -0.889037
H       0.468574    4.751771    2.032527
H       3.220467    4.172908    1.383629
