17

C       0.014825    1.551822   -0.055663
C       0.005344    0.057643    0.022464
C       0.032007   -0.808046   -1.032804
O       0.013744   -2.137778   -0.606269
C      -0.025003   -2.041227    0.719759
C      -0.037886   -0.781019    1.193381
C      -0.022549   -0.866816    2.694612
C      -0.165549   -2.423833    2.881757
O      -0.024211   -3.075618    1.572868
H       0.883774    1.974736    0.461769
H       0.045768    1.893004   -1.094057
H      -0.877466    1.983068    0.412741
H       0.052290   -0.674238   -2.100462
H       0.907822   -0.495513    3.142421
H      -0.847330   -0.345823    3.192810
H       0.598147   -2.851020    3.533738
H      -1.153727   -2.692420    3.265144
