16

O      -0.027383   -0.237448    0.093484
C       0.250682    0.788572   -0.469225
C       1.210083    1.830446    0.099277
N       1.328169    2.952297   -0.825159
C       1.340527    4.358507   -0.555108
C       2.320513    4.782160    0.611826
O       2.906349    3.604393    1.174379
C       3.435281    4.118376   -0.051525
C       2.494314    3.671444   -1.241644
H      -0.176715    1.060383   -1.461483
H       0.835908    2.144603    1.078586
H       2.174828    1.346692    0.281041
H       0.570567    5.004512   -0.962321
H       2.273884    5.675228    1.221970
H       4.490661    4.355255   -0.097147
H       2.792227    3.681501   -2.284299
