23

C      -0.174992    1.558710    0.016405
C       0.040668    0.045973    0.000750
C       0.868766   -0.487504   -1.201508
C       1.620693   -1.702303   -0.646047
C       1.929000   -2.855630   -1.570929
C       2.609151   -1.452648    0.488271
C       2.313480   -0.136266    1.204334
C       0.796509   -0.530148    1.212062
C       1.205711   -1.964654    0.779612
H       0.777708    2.097915    0.056350
H      -0.704502    1.891885   -0.882636
H      -0.769170    1.867038    0.883705
H      -0.942737   -0.443864   -0.024350
H       0.223606   -0.774961   -2.038919
H       1.556424    0.277501   -1.583745
H       2.595784   -2.547039   -2.384895
H       2.419517   -3.675910   -1.036206
H       1.014733   -3.254125   -2.026317
H       3.546646   -1.997741    0.523195
H       2.727523   -0.132916    2.216133
H       2.597413    0.799280    0.708750
H       0.280372   -0.403102    2.164723
H       0.867232   -2.913544    1.176120
