18

C      -0.092766    1.528351    0.099580
N       1.196448    0.821208   -0.017859
C       1.836207    0.534217    1.298315
C       0.935039   -0.468313    2.008173
C      -0.112646   -0.742563    1.236489
C      -1.205066   -1.751560    1.074016
O      -1.592359   -1.660642   -0.309656
C      -0.654380   -0.873070   -1.059108
C      -0.057054    0.051411   -0.019844
H      -0.368234    1.954271    1.062802
H      -0.340712    2.139492   -0.765082
H       2.832440    0.105529    1.126915
H       1.988794    1.470449    1.850767
H       1.180061   -0.903408    2.969824
H      -0.868122   -2.770649    1.310181
H      -2.092538   -1.541223    1.684302
H       0.121470   -1.507769   -1.514038
H      -1.209629   -0.369015   -1.854236
