11

O      -0.129395    1.348488    0.088042
N       0.039735   -0.046199    0.064270
C      -1.073017   -0.632752   -0.030951
C      -2.537754   -0.284880   -0.127359
O      -2.856036   -1.696072   -0.186540
C      -1.463492   -2.087783   -0.096514
H       0.777827    1.664901    0.161506
H      -2.968264    0.212414    0.751186
H      -2.840013    0.258254   -1.031864
H      -1.125108   -2.637844   -0.983718
H      -1.253384   -2.683836    0.800577
