21

C       0.041690    1.403328    0.077191
O      -0.059733    0.004171   -0.049909
C       0.648966   -0.551518   -1.144502
C       2.152425   -0.634168   -0.878782
C       0.004868   -1.939155   -1.440584
C      -1.473035   -1.772627   -1.812792
O       0.646189   -2.501301   -2.593374
C       0.151077   -2.840150   -0.289702
C       0.301346   -3.610627    0.620995
H       1.059392    1.733683    0.330549
H      -0.268224    1.918468   -0.845636
H      -0.628363    1.700036    0.887977
H       0.473617    0.054764   -2.048410
H       2.571055    0.359198   -0.697127
H       2.352565   -1.259474   -0.004083
H       2.669599   -1.051145   -1.747091
H      -1.544317   -1.179643   -2.729546
H      -1.923086   -2.750538   -1.994412
H      -2.008998   -1.264353   -1.011184
H       1.425936   -2.979450   -2.293862
H       0.421520   -4.283432    1.434101
