19

C      -0.037430    1.564971    0.064953
C       0.010981    0.027254    0.002746
C       0.677305   -0.477528   -1.194265
C       1.238165   -0.866013   -2.187967
C       1.897137   -1.358587   -3.399053
C       1.969337   -2.898658   -3.405040
C       1.200082   -0.827603   -4.667509
H       0.971895    1.985516    0.059219
H      -0.575643    1.971419   -0.795732
H      -0.544148    1.895761    0.976685
H       0.521673   -0.357579    0.895225
H      -1.010930   -0.371518    0.048549
H       2.928399   -0.977410   -3.402025
H       2.490557   -3.271209   -2.519286
H       0.963786   -3.330799   -3.412242
H       2.501333   -3.251474   -4.294638
H       1.174461    0.265271   -4.673687
H       1.729692   -1.167030   -5.563755
H       0.168785   -1.190398   -4.720101
