18

C      -0.018989    1.479311   -0.022140
C       0.038058   -0.021068   -0.062747
C       0.587786   -0.942522   -1.174021
C       0.068112   -1.920618   -0.107599
C       0.524463   -1.000163    1.075328
C      -0.858628   -1.043769    1.751357
C      -1.170116   -1.011900    0.239498
C      -2.445465   -1.013365   -0.423100
N      -3.471868   -1.002343   -0.957977
H       0.987628    1.904797   -0.096450
H      -0.611831    1.870714   -0.855456
H      -0.468465    1.838654    0.909697
H       0.060653   -0.927951   -2.132825
H       1.671373   -0.920949   -1.326791
H       0.052101   -3.010401   -0.107295
H       1.513098   -0.997952    1.533231
H      -1.123549   -1.966091    2.275490
H      -1.163670   -0.167899    2.330433
