15

O       0.570223    1.262170   -0.690184
C       0.260812    0.029021   -0.234528
C      -0.843664   -0.717877   -0.561215
N      -0.691154   -1.883057    0.173618
C       0.465019   -1.783113    0.871537
N       1.070237   -0.628702    0.646567
C       0.928804   -2.856674    1.769284
C       0.089957   -3.369610    2.869848
O       0.218080   -4.095166    1.644695
H       1.408407    1.499145   -0.275540
H      -1.674726   -0.544322   -1.220497
H      -1.261351   -2.712018    0.138905
H       2.009642   -2.939084    1.864455
H       0.563072   -3.830592    3.735336
H      -0.884186   -2.917800    3.047089
