19

C      -0.209177    1.601175    0.043633
C       0.121416    0.129046   -0.067979
C       1.442208   -0.572983   -0.292396
O       2.683037    0.032665    0.045465
C       2.996674   -0.230210    1.404698
C       2.478449    0.845159    2.297698
O       2.242331    2.113538    1.786465
C       1.657441   -0.444192    2.094625
C       0.680627   -0.812825    0.990023
H      -0.068010    2.100900   -0.922039
H      -1.264854    1.711626    0.314587
H       0.377457    2.118315    0.798702
H      -0.637310   -0.395974   -0.650523
H       1.537441   -1.295738   -1.098134
H       3.916896   -0.787995    1.555461
H       2.900047    0.900626    3.298557
H       2.452647    2.058508    0.843098
H       1.598605   -1.060067    2.985427
H       0.150073   -1.742198    1.167363
