17

O      -0.082952    1.281394   -0.341546
C      -0.051892   -0.058057   -0.023322
C      -0.355661   -1.116126   -1.032484
C      -1.336316   -0.909604    0.128680
O      -1.244433   -1.751792    1.236615
C       0.118627   -1.743369    1.690527
C       0.764022   -0.429485    1.198906
C      -2.612287   -0.235572   -0.095174
O      -2.766142    0.598235   -0.971680
H      -0.889829    1.436783   -0.861142
H      -0.710840   -0.772200   -1.998354
H       0.196967   -2.049818   -1.040554
H       0.109825   -1.837852    2.778982
H       0.644177   -2.614959    1.279094
H       1.829882   -0.556436    0.990158
H       0.650118    0.378147    1.927583
H      -3.418781   -0.488306    0.621116
