21

C      -0.067103    1.319870   -0.470209
O      -0.061004   -0.092402   -0.386073
C      -1.230560   -0.628461    0.186828
O      -2.375949   -0.362369   -0.588305
C      -2.625983   -1.454398   -1.491623
C      -1.552769   -2.515986   -1.208238
C      -1.098680   -2.154038    0.216534
C       0.269851   -2.678984    0.617947
O       0.182030   -4.099004    0.654532
H       0.886461    1.619923   -0.910463
H      -0.889681    1.680546   -1.098333
H      -0.160427    1.779179    0.526142
H      -1.402190   -0.164518    1.169781
H      -3.637655   -1.828375   -1.291454
H      -2.598807   -1.086792   -2.523119
H      -1.933333   -3.535063   -1.286328
H      -0.710779   -2.411037   -1.899046
H      -1.835225   -2.530893    0.936107
H       1.021885   -2.338059   -0.105232
H       0.550396   -2.273028    1.603304
H       1.057429   -4.446644    0.847272
