14

N       0.194490    1.070590    0.247127
C      -0.076099   -0.114308   -0.364079
O       0.741147   -0.728282   -1.023134
C      -1.487013   -0.615412   -0.162318
C      -2.190856   -1.168694   -1.384422
N      -1.749769   -2.026955   -0.325506
C      -0.791088   -3.032651   -0.478371
O      -0.804902   -3.836048   -1.372479
H       1.099356    1.487110    0.099451
H      -0.504382    1.595249    0.742938
H      -2.080258   -0.117959    0.602783
H      -3.263164   -1.027503   -1.485354
H      -1.614476   -1.191405   -2.305327
H      -0.091726   -3.066266    0.374815
