16

O      -0.112833   -0.043771   -0.166278
C       0.019158    1.145798   -0.091465
O      -1.103500    1.994110   -0.069161
C      -0.704650    3.360665    0.043449
C       0.787803    3.285513    0.057711
C       1.185240    2.006972   -0.025846
C       2.685375    1.930693    0.065435
C       3.065765    3.444439   -0.079220
N       1.807080    4.186742    0.221823
H      -1.105595    3.928646   -0.805905
H      -1.114992    3.791317    0.965508
H       3.013044    1.532729    1.033296
H       3.156402    1.320082   -0.709137
H       3.860325    3.750459    0.605025
H       3.393600    3.661197   -1.103944
H       1.714940    5.116057   -0.162826
