21

C      -0.119296    1.377471    0.106396
N      -0.071340   -0.054780   -0.187668
C       0.754350   -0.475081   -1.327574
C       0.158961    0.085331   -2.631499
C       2.151887    0.036710   -1.193408
N       3.219795    0.452111   -1.034409
C       0.836645   -2.005142   -1.287203
C      -0.199610   -2.900089   -1.911245
C       1.199546   -2.857022   -2.474010
H       0.870235    1.852754    0.195031
H      -0.685833    1.905780   -0.665710
H      -0.652586    1.514455    1.050600
H       0.243713   -0.553247    0.637792
H       0.223445    1.174875   -2.647262
H       0.699504   -0.284736   -3.504701
H      -0.893073   -0.198922   -2.699903
H       1.242925   -2.351854   -0.339729
H      -0.512184   -3.774515   -1.351789
H      -0.990430   -2.445302   -2.495321
H       1.341180   -2.378639   -3.436206
H       1.860043   -3.699259   -2.302573
