18

C       0.010230    1.582575   -0.088286
C       1.493001    1.907440    0.031439
C       2.219514    0.722072    0.595983
C       1.229458   -0.419808    0.788603
O       1.476638   -1.489471   -0.163598
C       0.752414   -0.700918   -1.150545
C       1.753859    0.241732   -1.810372
N       2.395417    1.119865   -0.812100
C      -0.001920    0.056847   -0.021896
H      -0.545365    2.020108    0.748840
H      -0.435749    1.974360   -1.010738
H       1.807400    2.930302    0.222165
H       3.100630    0.800574    1.225175
H       1.145457   -0.782514    1.815563
H       0.199542   -1.328008   -1.856393
H       2.536445   -0.346695   -2.300242
H       1.276723    0.867734   -2.573947
H      -0.950798   -0.403356    0.250517
