17

O      -0.338800    0.044715   -0.148298
C       0.050443    1.174871   -0.018836
C       1.412680    1.666450   -0.480303
N       1.317466    3.032783   -0.978854
C       2.568570    3.728896   -1.128143
C       3.569186    3.378485   -2.233089
C       2.762959    4.644263   -2.315404
C       3.133750    4.154774    0.135895
N       3.597636    4.467480    1.148131
H      -0.564612    1.963958    0.467709
H       2.054656    1.679370    0.412654
H       1.842174    0.935802   -1.181800
H       0.784722    3.078732   -1.838675
H       4.627364    3.451999   -2.011831
H       3.290976    2.551467   -2.876859
H       1.943005    4.692018   -3.024665
H       3.260556    5.590850   -2.144088
