17

N       0.177915    1.322896   -0.198702
C       0.072078   -0.050931   -0.075675
N      -1.091718   -0.661331   -0.088356
O      -0.797021   -2.014085    0.142654
C       0.527949   -2.148720    0.272294
C       1.165357   -0.957055    0.143711
C       2.599682   -0.613492    0.229469
C       3.663331   -1.602846   -0.173602
C       3.418446   -0.390345   -1.032452
H       1.004572    1.623925   -0.695601
H      -0.661568    1.756527   -0.558901
H       0.884669   -3.150492    0.458454
H       2.857058    0.041197    1.058965
H       4.570652   -1.641704    0.418003
H       3.341556   -2.562952   -0.560759
H       2.923124   -0.543300   -1.984965
H       4.157741    0.402898   -1.027243
