18

C       0.048883    1.429735   -0.071638
N      -0.034659   -0.021750    0.088813
C       0.807423   -0.526731    1.172917
C      -1.331824   -0.557223    0.037406
C      -1.860967   -1.379691   -0.938871
O      -1.224058   -1.833839   -2.047444
C      -3.186045   -1.641575   -0.540562
N      -3.472042   -1.025876    0.608988
N      -2.348442   -0.376436    0.945481
H       1.087777    1.714778   -0.268535
H      -0.564194    1.738340   -0.921117
H      -0.288177    1.986675    0.819882
H       0.530808   -0.124438    2.163005
H       0.735975   -1.615781    1.212796
H       1.850113   -0.251657    0.981999
H      -0.329699   -1.467146   -2.013430
H      -3.930717   -2.244409   -1.037119
H      -2.334214    0.164686    1.792746
