22

C      -0.337588    1.482394    0.897743
C      -0.055861    0.037801    0.501978
C       1.229972   -0.376399   -0.292387
C       2.019774   -0.157421    1.032555
C       0.735925   -0.944939    1.431076
C       0.974122   -1.865890    0.169226
C      -0.207263   -2.646117   -0.426938
C       2.159749   -2.842023    0.187100
H       0.517518    2.015052    1.318949
H      -0.679782    2.050197    0.024840
H      -1.143394    1.517287    1.639978
H      -0.980919   -0.374310    0.100875
H       1.518793   -0.043736   -1.293116
H       2.981844   -0.651359    1.145350
H       2.094877    0.867481    1.392188
H       0.450346   -1.273292    2.434155
H      -1.140745   -2.090706   -0.511967
H       0.051159   -3.002593   -1.430818
H      -0.411923   -3.534098    0.182341
H       1.906106   -3.726770    0.782539
H       2.369870   -3.193083   -0.829892
H       3.087385   -2.435796    0.588413
