17

C       0.260925    1.476779   -0.050038
C       0.014990    0.006736   -0.023939
C      -0.381247   -0.824037   -1.016610
O      -0.468952   -2.096346   -0.507253
C      -0.112767   -1.960847    0.797438
N       0.187074   -0.747540    1.138190
C      -0.099963   -3.164533    1.637970
C      -1.121965   -4.233104    1.433338
N       0.274570   -4.471661    1.060341
H       1.294136    1.703083    0.233259
H       0.077531    1.889470   -1.045298
H      -0.389885    1.992928    0.663467
H      -0.623163   -0.706404   -2.058615
H       0.285992   -2.974714    2.633378
H      -1.473758   -4.797366    2.292142
H      -1.855008   -4.077263    0.647418
H       0.379336   -4.368913    0.053148
