18

C      -0.031946    1.505284    0.037751
C       0.052922   -0.002084    0.005672
C      -0.799011   -0.820449    0.942550
C       0.707385   -0.806523    1.122359
C       1.426519   -1.926103    0.435749
C       1.256019   -1.881360   -0.896177
C       0.448982   -0.678575   -1.314535
C       2.163362   -2.917660    1.140247
N       2.764810   -3.705766    1.739786
H       0.903878    1.963435   -0.301862
H      -0.836119    1.869713   -0.612196
H      -0.235612    1.869857    1.049183
H      -1.387611   -0.272903    1.671562
H      -1.256810   -1.739171    0.589311
H       1.140327   -0.348176    2.003852
H       1.635309   -2.618415   -1.593347
H      -0.421540   -0.960833   -1.920579
H       1.051868   -0.007242   -1.942712
