20

O       0.431120    0.787829    0.911653
C       0.035322   -0.248437    0.009032
C      -1.476704   -0.232309   -0.070385
C      -2.226209    0.976435   -0.577546
C      -2.164570   -0.274585   -1.415320
C      -1.343603   -0.410539   -2.690923
N       0.105436   -0.206513   -2.624403
C       0.663512    1.067366   -2.189604
C       0.774507   -0.142762   -1.323934
H       1.392371    0.771200    0.974159
H       0.316351   -1.223571    0.437738
H      -1.949159   -0.771286    0.744293
H      -3.169463    1.208772   -0.094747
H      -1.663959    1.853930   -0.866338
H      -3.085418   -0.850501   -1.457364
H      -1.486592   -1.433406   -3.062393
H      -1.732015    0.257381   -3.468956
H       1.526403    1.406912   -2.758767
H       0.007667    1.867141   -1.863598
H       1.733483   -0.662448   -1.315872
