21

C       0.020363    1.480485    0.038020
C       0.009748   -0.017275   -0.049245
C      -0.957913   -0.889137    0.771922
C      -1.068157   -2.252911    0.093817
C       0.444453   -2.101586   -0.234120
C       1.325534   -3.301041   -0.459221
C       0.536457   -1.037520    0.940013
C       0.484273   -0.882301   -1.209954
O      -0.212362   -0.915233   -2.434201
H       1.007514    1.885546   -0.211792
H      -0.704242    1.923811   -0.654643
H      -0.234380    1.822765    1.046859
H      -1.654748   -0.427548    1.460610
H      -1.234289   -3.048756    0.826133
H      -1.764131   -2.393450   -0.744846
H       1.042286   -3.812692   -1.386603
H       2.378350   -3.011058   -0.549027
H       1.244205   -4.022970    0.360581
H       1.190107   -0.926709    1.792980
H       1.522961   -0.644919   -1.465191
H      -1.153207   -0.973490   -2.239646
