23

C       0.365124    1.515373   -0.314597
C      -0.051708    0.078047    0.011458
O      -1.456032    0.014779    0.234857
C       0.437277   -0.898354   -1.091676
C       1.786525   -1.420734   -0.553307
O       1.956669   -0.860834    0.749128
C       0.673703   -0.496333    1.270141
C       0.908734    0.508767    2.393643
C      -0.057480   -1.731117    1.824612
H       1.451563    1.599585   -0.407876
H      -0.074531    1.822372   -1.271671
H       0.023636    2.211580    0.455171
H      -1.893466    0.481127   -0.484388
H      -0.294313   -1.701680   -1.203427
H       0.540381   -0.403674   -2.061287
H       1.802674   -2.518367   -0.507385
H       2.640351   -1.101504   -1.159388
H       1.562095    1.321298    2.070703
H      -0.044389    0.928646    2.728866
H       1.383588    0.014232    3.245699
H       0.562677   -2.193068    2.598128
H      -1.019140   -1.449534    2.258231
H      -0.251335   -2.479289    1.051557
