23

C       0.185914    1.506849    0.072918
C       0.019244   -0.013407    0.001213
C      -1.462628   -0.415920    0.007724
C       0.677670   -0.553861   -1.288856
O       2.084542   -0.439540   -1.311807
C       2.762352   -1.586905   -0.827862
C       2.655132   -1.781096    0.684749
C       1.215850   -1.787653    1.213072
O       0.644517   -0.494106    1.200139
H       1.240778    1.768060   -0.040688
H      -0.388076    2.002682   -0.716236
H      -0.163169    1.873121    1.041925
H      -1.975909   -0.065971   -0.894360
H      -1.574037   -1.504309    0.057474
H      -1.963030    0.016785    0.878183
H       0.378052   -1.598297   -1.464886
H       0.292950    0.035481   -2.129660
H       2.380329   -2.483860   -1.345103
H       3.809588   -1.460667   -1.120442
H       3.145096   -2.728538    0.947455
H       3.193451   -0.977917    1.200022
H       0.597948   -2.519325    0.669687
H       1.217588   -2.096409    2.264228
