16

C      -0.211278    1.527533    0.007943
C      -0.145751    0.026228   -0.008779
C      -0.055706   -0.616185   -1.212681
N       0.019912   -1.928485   -1.589227
C       0.022998   -2.952461   -0.797313
C      -0.047272   -3.032139    0.634406
C      -0.137063   -2.028592    1.537165
C      -0.189420   -0.575004    1.341386
O      -0.271325    0.150065    2.328866
H       0.613719    1.935643    0.601561
H      -0.177633    1.946870   -0.999352
H      -1.124636    1.860670    0.512272
H      -0.038815    0.040284   -2.082269
H       0.090319   -3.917498   -1.303959
H      -0.023934   -4.046300    1.027366
H      -0.180336   -2.289330    2.591823
