14

O      -0.012908    1.457519   -0.055534
C       0.051244    0.044376   -0.045259
C       0.728462   -0.473794   -1.248847
N       1.294823   -0.829950   -2.190339
C       0.722464   -0.483916    1.231021
C      -0.010395   -0.184482    2.548906
O      -0.206178   -1.618858    2.775730
C       0.430028   -1.948487    1.607051
O       0.611314   -3.025463    1.145656
H       0.873512    1.806340   -0.207890
H      -0.991387   -0.292498   -0.068154
H       1.789729   -0.249115    1.229381
H       0.588151    0.256508    3.346911
H      -0.967688    0.331022    2.453294
