23

C      -1.348961   -1.459915    2.694387
C      -0.577675   -1.392501    1.392990
C      -0.695697   -0.212167    0.455662
C       0.619472   -0.501176    1.135495
C       1.296941    0.456155    2.131880
C       2.055532   -0.363203    3.203473
C       2.309917    1.324241    1.340381
C       0.357768    1.371111    2.791375
C      -0.356843    2.171002    3.336664
H      -1.405548   -0.488653    3.188380
H      -2.373404   -1.803725    2.510498
H      -0.887845   -2.167626    3.392866
H      -0.502557   -2.357855    0.896538
H      -0.787399   -0.384084   -0.611513
H      -1.252027    0.644604    0.822373
H       1.373933   -0.961660    0.500831
H       2.756702   -1.049882    2.717620
H       2.622227    0.295297    3.868266
H       1.363880   -0.951666    3.810294
H       1.802555    1.891770    0.556051
H       2.816674    2.029943    2.004279
H       3.065939    0.684841    0.872593
H      -1.000665    2.864740    3.818525
