19

C      -0.046607    1.500512    0.352076
C      -0.046002   -0.005791    0.211384
C       1.199536   -0.729624   -0.291264
C       0.772652   -0.838933    1.137755
O       1.560159   -0.273842    2.205857
C       1.285457   -1.411005    3.046153
C      -0.017884   -1.285258    3.851695
O      -0.788981   -1.868691    2.768320
C       0.392933   -2.054681    1.966008
H       0.910984    1.856040    0.742316
H      -0.227345    1.987168   -0.612080
H      -0.827317    1.827031    1.046986
H      -0.998408   -0.442654   -0.079590
H       1.087697   -1.594112   -0.938339
H       2.079569   -0.124504   -0.486594
H       2.181002   -1.822935    3.511966
H      -0.071161   -1.908436    4.753154
H      -0.317385   -0.258086    4.084819
H       0.465334   -3.052648    1.530512
