14

O       0.467908    1.674513    1.885136
C       0.138696    1.859704    0.737163
C       1.052410    1.679613   -0.372175
C       1.849383    1.516285   -1.258776
C      -1.260962    2.295468    0.379625
N      -2.185619    2.499314    1.223931
C      -3.364836    2.903791    0.444514
C      -2.892903    2.881127   -1.034148
O      -1.506718    2.470095   -0.943967
H       2.550411    1.373178   -2.045117
H      -4.187658    2.208240    0.638606
H      -3.695636    3.895397    0.769773
H      -3.423077    2.154209   -1.654731
H      -2.926360    3.858461   -1.522323
