17

C      -0.115850    1.512745   -0.054337
C       0.102042   -0.003910    0.040815
C       0.717859   -0.564100   -1.202496
C       0.012176   -0.994718   -2.453730
C       0.955961   -1.955807   -1.751096
C       2.385248   -1.483362   -1.974619
O       2.055405   -0.140963   -1.526860
H       0.831538    2.024431   -0.246431
H      -0.803031    1.761039   -0.869472
H      -0.534314    1.907361    0.876188
H       0.751386   -0.231817    0.894964
H      -0.851675   -0.514896    0.218318
H      -1.040582   -1.235620   -2.340406
H       0.284959   -0.554380   -3.409427
H       0.650345   -2.925519   -1.381657
H       3.115045   -1.944765   -1.299290
H       2.773016   -1.495704   -3.000733
