20

C       0.100583    1.415499   -0.228028
C       0.017592   -0.102256   -0.037359
C      -1.419570   -0.598541    0.085213
C      -2.342231   -0.531658   -1.180386
C      -2.659266   -2.047206   -1.026351
N      -2.067027   -2.900880   -2.066459
C      -0.974091   -3.319821   -1.579284
O      -0.601284   -2.966540   -0.320188
C      -1.671874   -2.127751    0.176632
H       1.138939    1.744804   -0.331038
H      -0.438973    1.734077   -1.126511
H      -0.335292    1.947756    0.624890
H       0.507349   -0.609071   -0.876586
H       0.576799   -0.394439    0.860391
H      -1.898713   -0.106537    0.939841
H      -3.200722    0.138627   -1.098783
H      -1.814381   -0.313422   -2.112305
H      -3.707736   -2.303845   -0.864290
H      -0.266826   -3.968864   -2.084128
H      -1.984020   -2.528157    1.142950
