17

C      -0.025201    1.502414    0.025696
C      -0.020674    0.004924    0.007710
C      -0.016556   -0.792093   -1.095661
N      -0.002921   -2.131167   -0.680203
C      -0.006245   -2.188274    0.674212
N      -0.067493   -3.347827    1.398701
C      -0.008857   -0.871721    1.159991
C       0.053022   -0.564988    2.557275
O       0.076417   -1.402784    3.458834
H       0.856421    1.906890    0.536746
H      -0.031522    1.904263   -0.991406
H      -0.904751    1.899537    0.545641
H      -0.015715   -0.548347   -2.145499
H      -0.066755   -2.926801   -1.291601
H       0.438150   -4.144237    1.039137
H       0.074366   -3.157053    2.388288
H       0.091096    0.514939    2.813221
