21

C       0.037520    1.499267   -0.013647
C       0.019063    0.042999   -0.028120
C       0.014881   -1.161510   -0.036354
C      -0.005450   -2.620932   -0.033977
C      -1.423416   -3.239984   -0.009984
C      -2.217369   -2.799796   -1.240190
O      -3.542512   -3.332574   -1.147711
C      -1.327958   -4.773077    0.088885
O      -2.553625   -5.397447    0.399345
H       0.857594    1.880041    0.605248
H       0.167308    1.908562   -1.021732
H      -0.896146    1.905846    0.390657
H       0.538559   -2.998558   -0.911768
H       0.546629   -2.989944    0.839632
H      -1.949733   -2.879219    0.881873
H      -2.246398   -1.704093   -1.294938
H      -1.715278   -3.171294   -2.148434
H      -4.007404   -3.144746   -1.967901
H      -0.898637   -5.162670   -0.853694
H      -0.628491   -5.044261    0.889105
H      -3.216280   -4.992086   -0.176316
