15

O       0.142333    1.246466    0.372768
C      -0.004644   -0.124597    0.123782
C      -1.442057   -0.504483   -0.054452
N      -2.416408    0.294829    0.072914
C      -3.640000   -0.468773   -0.169245
C      -3.129888   -1.928706   -0.432791
O      -1.691432   -1.807138   -0.367474
C      -3.588664   -2.903026    0.560654
N      -3.984884   -3.657277    1.340572
H      -0.747770    1.605800    0.490171
H       0.547589   -0.412840   -0.782601
H       0.406677   -0.732718    0.945617
H      -4.307335   -0.418069    0.694531
H      -4.175964   -0.071817   -1.036000
H      -3.391889   -2.291912   -1.429995
