19

C      -0.739426    1.362628   -0.393058
C       0.217758    0.216776   -0.075012
C       0.765607   -0.482617   -1.309208
O       0.545447   -0.076443   -2.430879
C       1.608934   -1.724177   -1.064422
C       2.414935   -2.205388   -2.288533
O       3.381475   -3.137014   -1.884497
C       1.519652   -2.815536   -3.355275
O       1.682588   -3.956725   -3.720418
H      -0.250512    2.116290   -1.014741
H      -1.611825    1.002474   -0.944675
H      -1.086125    1.841212    0.526696
H       1.081036    0.572240    0.505712
H      -0.256735   -0.540462    0.563993
H       2.317391   -1.537796   -0.249450
H       0.953378   -2.527332   -0.700200
H       2.888790   -1.321779   -2.748685
H       3.208462   -3.931613   -2.415715
H       0.731956   -2.163881   -3.769548
