17

C      -0.068650    1.470548    0.047629
N      -0.007794    0.019881    0.004916
C       0.032466   -0.697977   -1.190202
O      -0.033452   -0.192093   -2.282640
C       0.203289   -2.171818   -0.841596
C       0.016570   -2.254254    0.680400
N       0.966767   -3.128975    1.354486
C       0.053341   -0.783928    1.136893
O       0.124857   -0.385751    2.275078
H       0.746382    1.898413   -0.540781
H      -1.015881    1.825711   -0.366783
H       0.019490    1.770481    1.092107
H      -0.495798   -2.781243   -1.416272
H       1.212684   -2.481534   -1.133985
H      -0.991121   -2.619463    0.915329
H       1.913455   -2.792907    1.191346
H       0.819876   -3.051692    2.358259
