20

C      -0.635611    1.191116   -0.067919
C       0.186107   -0.084432   -0.156955
C       1.600557   -0.038002   -0.799469
C       2.090629   -1.023211    0.293236
C       0.827203   -0.693995    1.129224
C       0.929294    0.079533    2.461501
O       0.233027   -1.009503    3.149982
C       0.121868   -1.725066    1.974713
N      -0.398045   -2.842065    1.738850
H      -0.062914    2.011006    0.379882
H      -0.946412    1.516272   -1.066659
H      -1.542570    1.045963    0.529522
H      -0.406136   -0.877284   -0.626225
H       1.691842   -0.350575   -1.841915
H       2.057461    0.951254   -0.692087
H       2.068387   -2.063861   -0.039645
H       3.055842   -0.823772    0.765588
H       1.937421    0.212717    2.863916
H       0.361613    1.009684    2.540568
H      -0.792150   -3.260556    2.583050
