18

C       0.048739    1.476713   -0.099471
C      -0.007313   -0.020349    0.041232
C      -1.340622   -0.729829    0.447778
C      -0.504526   -1.664081    1.318455
C       0.759147   -2.121523    0.578034
C       0.705195   -0.762083    1.212589
C       0.827010   -1.934122   -0.896082
N       1.190754   -2.794215   -1.747080
O       0.474905   -0.637426   -1.175762
H       1.073581    1.804346   -0.298352
H      -0.585028    1.808991   -0.927195
H      -0.299875    1.958182    0.818387
H      -1.968446   -0.075858    1.059244
H      -1.929591   -1.150820   -0.372826
H      -0.848771   -2.232796    2.173166
H       1.321593   -2.931106    1.021528
H       1.390578   -0.366781    1.950225
H       1.178949   -2.392531   -2.686169
