21

C      -0.031963    1.526328    0.054744
C       0.038839    0.027768   -0.006665
C       0.866493   -0.776350   -1.015579
C      -0.126250   -1.972714   -0.808676
C      -0.587780   -2.758849   -2.009861
O       0.379236   -2.873760    0.178723
C       0.524997   -2.135279    1.393453
C      -0.281973   -0.858211    1.190060
C      -1.085732   -1.001830   -0.068633
H       0.913958    1.954740    0.407646
H      -0.239122    1.953357   -0.933430
H      -0.821234    1.861732    0.735988
H       0.782511   -0.351015   -2.020980
H       1.921267   -0.977807   -0.797069
H       0.249180   -3.309101   -2.450784
H      -1.356054   -3.482117   -1.719500
H      -1.003490   -2.092747   -2.771008
H       0.130372   -2.738090    2.220313
H       1.587245   -1.936494    1.595587
H      -0.722127   -0.366589    2.050373
H      -2.159233   -0.899405   -0.164432
