17

C       0.001706    1.385042    0.093999
N       0.107745   -0.050545   -0.032835
C       0.640926   -0.660316   -1.106976
O       1.107483   -0.104029   -2.093635
C       0.618930   -2.181579   -1.009230
N       1.246950   -2.763109   -2.067012
N       0.067214   -2.734282    0.005086
C       0.072288   -4.183660    0.064254
H       0.539918    1.746207    0.977474
H       0.442934    1.831369   -0.798537
H      -1.044483    1.702450    0.171292
H      -0.241390   -0.680132    0.678445
H       1.491675   -2.132213   -2.816782
H       1.112812   -3.736998   -2.272290
H       1.092831   -4.596730    0.032009
H      -0.395961   -4.516596    0.993564
H      -0.490275   -4.636767   -0.768784
