20

C      -0.043864    1.446148    0.099457
N       1.281627    0.815765   -0.080737
C       1.634417    0.272726    1.281694
C       0.420661   -0.697078    1.286993
C       0.763384   -2.178790    1.057506
C      -0.193253   -2.797716    0.034154
O      -0.089306   -2.133829   -1.215189
C      -0.577788   -0.803139   -1.162752
C       0.006584   -0.019295   -0.023594
H      -0.285511    1.911224    1.054141
H      -0.360331    2.014567   -0.770961
H       2.601867   -0.233107    1.250335
H       1.659490    1.043197    2.059741
H      -0.293396   -0.592334    2.111452
H       1.776673   -2.270709    0.650675
H       0.735432   -2.739094    1.998492
H       0.061147   -3.844356   -0.155782
H      -1.234241   -2.764532    0.401728
H      -0.329619   -0.335484   -2.120451
H      -1.678658   -0.815427   -1.061185
