18

C      -0.023071    1.491877    0.045800
C       0.016182   -0.010485    0.035956
N       0.910690   -0.717601   -0.932866
C       0.820714   -1.864132   -0.020427
C      -0.682653   -2.121664    0.428536
O      -0.355089   -1.722424    1.799609
C       0.670125   -0.923382    1.180386
C      -1.322143   -0.808228   -0.076396
O      -2.379618   -0.359870    0.727552
H       0.964387    1.914013    0.252399
H      -0.360304    1.878588   -0.922873
H      -0.729966    1.841195    0.803982
H       0.492818   -0.858552   -1.853362
H       1.515256   -2.697772   -0.109068
H      -1.219290   -3.066294    0.363461
H       1.443839   -0.539979    1.841511
H      -1.677446   -0.846043   -1.111060
H      -2.122078   -0.590320    1.632524
