18

C       0.056950    1.491651    0.009540
O       1.207162    0.638964   -0.006038
C      -0.100807    0.034707    0.003222
C      -0.440007   -0.732628    1.267186
C       0.128673   -2.154614    1.164274
O      -0.321991   -2.809057   -0.009944
C       0.106200   -2.141989   -1.185466
C      -0.464192   -0.719035   -1.262199
H      -0.099160    2.048626    0.933252
H      -0.116735    2.058497   -0.904985
H      -0.029910   -0.218580    2.142112
H      -1.529576   -0.789054    1.379674
H       1.230185   -2.110126    1.175748
H      -0.196865   -2.771850    2.006097
H       1.207297   -2.097269   -1.217529
H      -0.235444   -2.750176   -2.027493
H      -1.555718   -0.774351   -1.354439
H      -0.070836   -0.195576   -2.139230
