18

C      -0.021866    1.614084   -0.014985
C       0.080414    0.086731   -0.011319
C       0.846404   -0.521997   -1.165441
C       1.609337   -1.544799   -0.791757
C       1.497806   -1.815373    0.687640
C       0.829745   -0.513197    1.226679
O       1.809009    0.432203    1.629135
C      -0.086773   -0.781316    2.353108
N      -0.781405   -0.991862    3.252902
H       0.966127    2.076839   -0.028320
H      -0.573732    1.942859   -0.901105
H      -0.557225    1.975068    0.867881
H      -0.939749   -0.322971   -0.009788
H       0.732822   -0.154675   -2.179147
H       2.221200   -2.152632   -1.447617
H       0.878087   -2.698131    0.891426
H       2.460645   -1.979929    1.184866
H       2.284971    0.071596    2.385391
