20

C       0.011451    1.503677   -0.012219
C      -0.034890   -0.010188    0.012338
C      -0.821345   -0.685823    1.098554
C       0.702376   -0.729606    1.128334
C       1.428542   -2.009197    0.854060
O       2.264873   -2.459558    1.617754
N       1.114467   -2.635486   -0.324351
C       0.114983   -2.199749   -1.284956
C       0.049644   -0.670294   -1.354470
H       0.925227    1.862267   -0.499791
H      -0.843501    1.914507   -0.562153
H      -0.012387    1.918331    1.000041
H      -1.300453   -0.060832    1.844243
H      -1.355524   -1.605656    0.889340
H       1.194285   -0.140117    1.892977
H       1.572804   -3.524041   -0.456705
H       0.383511   -2.598259   -2.268183
H      -0.877748   -2.608462   -1.044966
H      -0.809813   -0.381396   -1.971664
H       0.948808   -0.299278   -1.862693
