21

C      -0.170722    1.324182    0.131501
C       1.148855    0.705428   -0.229874
C       1.877757    0.250860    1.040306
C       0.673637   -0.689574    1.389096
C       0.980280   -2.206965    1.299985
C      -0.058894   -2.827318    2.202516
C      -0.633601   -1.916320    2.986235
C      -0.083011   -0.533338    2.731578
C      -0.048581   -0.174367    0.124928
H      -0.283716    1.873612    1.063973
H      -0.734821    1.742743   -0.696242
H       1.613335    0.869217   -1.194639
H       2.792746   -0.313366    0.841644
H       2.107135    1.041639    1.763980
H       0.944118   -2.574435    0.267395
H       1.992511   -2.430770    1.669885
H      -0.260308   -3.892830    2.221977
H      -1.381551   -2.121167    3.744594
H       0.598318   -0.232260    3.542073
H      -0.858678    0.239119    2.680723
H      -0.661707   -0.791293   -0.523066
