20

C      -0.133140    1.348580    0.238808
O      -0.170292   -0.069925    0.200489
C      -1.408610   -0.663474   -0.104488
C      -1.954505   -0.263096   -1.467701
C      -1.213941   -2.170839    0.123830
C      -1.436110   -2.299897    1.635242
C      -2.395947   -1.169255    1.933221
N      -3.111815   -1.049446    2.964545
O      -2.390661   -0.281772    0.884576
H       0.820263    1.618006    0.698236
H      -0.173399    1.789784   -0.765638
H      -0.950745    1.754951    0.843788
H      -1.222504   -0.502481   -2.243873
H      -2.881120   -0.803400   -1.672912
H      -2.172714    0.806431   -1.507507
H      -1.972627   -2.727358   -0.433241
H      -0.226225   -2.487871   -0.211157
H      -1.847399   -3.256236    1.958512
H      -0.505288   -2.128552    2.184042
H      -3.659936   -0.188302    2.921147
