15

O      -0.107123    0.024998    0.350237
C      -0.117441    1.180490   -0.005825
C       1.105752    2.007459    0.030454
N       2.071200    2.638840    0.100819
N      -1.180663    1.847706   -0.559086
C      -1.806463    3.058463   -0.031314
C      -2.684751    3.630595   -1.150082
C      -3.457204    2.261914   -1.198197
C      -2.546363    1.739496   -0.078213
H      -1.354784    3.568647    0.811061
H      -3.317004    4.450000   -0.804051
H      -2.152201    3.935637   -2.052528
H      -4.495037    2.362434   -0.876575
H      -3.416542    1.699170   -2.132374
H      -2.768538    1.036640    0.714659
