17

C       0.122945    1.547905   -0.189086
C       0.075166    0.019671   -0.191727
C      -1.343143   -0.547454    0.023417
C      -2.256321   -0.173367   -1.056468
N      -2.965347    0.114333   -1.923383
C      -1.337315   -2.086922    0.266179
C      -2.658014   -2.809839    0.137847
O      -0.313159   -2.637462    0.579843
H       1.148294    1.897374   -0.338827
H      -0.495432    1.971924   -0.986346
H      -0.231760    1.956276    0.763861
H       0.467768   -0.373657   -1.135127
H       0.703818   -0.394549    0.599888
H      -1.759155   -0.120219    0.950039
H      -3.445716   -2.287755    0.691468
H      -2.971434   -2.823349   -0.911491
H      -2.551742   -3.831364    0.503305
