16

C      -0.083668    1.568025   -0.314743
C      -0.119287    0.044847   -0.176128
C       0.827647   -0.636998   -1.193498
O       2.149919   -0.183260   -1.052955
C       0.784271   -2.143032   -1.027474
O       1.737908   -2.767934   -0.613931
C      -0.482918   -2.917562   -1.399606
O      -1.461347   -2.408375   -1.878357
H       0.935947    1.940009   -0.191383
H      -0.443337    1.881153   -1.300904
H      -0.719711    2.039439    0.440099
H       0.194496   -0.247932    0.833592
H      -1.135500   -0.330355   -0.331929
H       0.465842   -0.399429   -2.205739
H       2.654667   -0.926288   -0.690053
H      -0.391159   -4.005509   -1.200069
