21

C      -0.643116    1.733529   -0.091805
C      -0.417404    0.235950   -0.278640
C      -1.405823   -0.633726    0.473495
O      -2.220163   -0.191241    1.251346
C      -1.351545   -2.142322    0.152117
C      -1.683151   -2.990337    1.384129
C      -2.308799   -2.336218   -1.043671
C      -3.775555   -2.546064   -0.732773
O      -1.887717   -2.265100   -2.175176
H       0.115095    2.307943   -0.630805
H      -1.627527    2.029947   -0.464012
H      -0.599870    2.005539    0.965708
H      -0.457613   -0.061967   -1.334985
H       0.587641   -0.059797    0.056613
H      -0.357493   -2.377515   -0.237927
H      -0.889696   -2.893244    2.130897
H      -2.612764   -2.656531    1.848340
H      -1.771031   -4.049310    1.124831
H      -4.120221   -1.789156   -0.020411
H      -4.353788   -2.495561   -1.655733
H      -3.930699   -3.522054   -0.260444
