23

C      -0.117958    1.529590    0.045170
C       0.014915    0.017293    0.036556
C      -1.179662   -0.643811   -0.636171
C       1.350533   -0.666296   -0.195563
C       2.657347    0.118675   -0.062354
C       2.674696    0.532752    1.393538
C       1.611405    0.068628    2.052775
C       0.697951   -0.742374    1.186370
C       0.109045   -1.989143    1.814181
H       0.691873    2.024485    0.582160
H      -0.133093    1.917170   -0.980819
H      -1.061926    1.827211    0.517612
H      -1.329074   -0.217191   -1.635282
H      -1.053497   -1.721693   -0.761727
H      -2.102524   -0.476807   -0.067812
H       1.343900   -1.532262   -0.850224
H       3.527144   -0.501283   -0.318032
H       2.697232    0.987725   -0.733833
H       3.451099    1.162128    1.814947
H       1.403311    0.237936    3.104574
H      -0.548827   -1.731940    2.653512
H      -0.478107   -2.580777    1.109244
H       0.903228   -2.634091    2.207327
