16

N       0.083019    1.413557    0.035792
C      -0.016353    0.010139    0.002287
C      -1.082494   -0.850497   -0.130361
C      -0.571557   -2.180080   -0.012743
C      -1.360414   -3.460313   -0.084528
C      -2.029937   -3.660272   -1.375570
N      -2.563470   -3.810960   -2.389513
C       0.784948   -2.085627    0.177824
N       1.111616   -0.748611    0.190962
H       0.506123    1.792265   -0.806897
H      -0.832899    1.833203    0.135439
H      -2.105990   -0.566752   -0.323406
H      -0.703301   -4.318355    0.094083
H      -2.132052   -3.493593    0.695548
H       1.536792   -2.848813    0.297157
H       2.014339   -0.363498    0.408720
