18

O      -0.001406    1.415967   -0.053456
C      -0.026024    0.001105   -0.020012
C      -1.437861   -0.467107    0.110218
C      -2.558148    0.268422    0.136891
C      -3.748504   -0.655053    0.070205
C      -3.677857   -1.349031   -1.338191
N      -2.856728   -2.475640   -0.808637
C      -3.214608   -2.029668    0.574703
C      -1.803464   -1.909050    0.162721
H       0.915779    1.698086   -0.108431
H       0.417102   -0.432318   -0.934357
H       0.570242   -0.391007    0.823667
H      -2.610106    1.341580    0.012230
H      -4.709424   -0.269900    0.406042
H      -4.640169   -1.770202   -1.638960
H      -3.239676   -0.777583   -2.163030
H      -3.623494   -2.691972    1.331445
H      -1.076835   -2.674342    0.411468
