19

O       0.560228    0.871651    0.625850
C       0.065671   -0.421843    0.362972
C      -1.395056   -0.408852   -0.115184
C      -1.917474   -1.820341   -0.508179
C      -2.399703   -2.485472    0.804529
C      -2.559013   -1.327083    1.776703
O      -2.714439   -1.364863    2.973255
C      -2.367009   -0.016654    1.015751
O      -1.947315    1.013592    1.880591
H      -0.053335    1.263531    1.262345
H       0.697162   -0.847453   -0.425311
H       0.169558   -1.082732    1.243259
H      -1.461602    0.287525   -0.955152
H      -2.750616   -1.721460   -1.210379
H      -1.145844   -2.407989   -1.011648
H      -3.339525   -3.036599    0.701676
H      -1.672618   -3.187175    1.225052
H      -3.344107    0.238071    0.565229
H      -2.144586    0.692429    2.776009
