15

C      -0.071428    1.564734    0.015370
C       0.042356    0.038355   -0.017955
N       0.811918   -0.445275   -1.170593
C       1.765107   -1.160796   -0.692650
N       1.787885   -1.268387    0.701995
C       0.740788   -0.523754    1.232161
O       0.480730   -0.371924    2.399400
C       2.761070   -1.828454   -1.460545
C       3.619236   -2.406561   -2.071987
H       0.920183    2.025856    0.026989
H      -0.606844    1.920866   -0.867266
H      -0.609161    1.870678    0.916371
H      -0.966227   -0.393474   -0.068425
H       2.476521   -1.762365    1.246530
H       4.369244   -2.911781   -2.630279
