17

C      -0.138707    1.310224    0.558185
N      -0.027438   -0.109084    0.336398
C      -1.099259   -1.057375   -0.013517
C      -1.942851   -0.642476   -1.122965
C      -2.603943   -0.289754   -2.064175
C       0.070800   -2.057708   -0.435494
O       0.010906   -2.713944   -1.652223
C       0.990577   -0.839714   -0.265928
N       2.190754   -0.638303   -0.609147
H       0.863852    1.723404    0.699662
H      -0.614054    1.824549   -0.288206
H      -0.720436    1.515473    1.462943
H      -1.705947   -1.371516    0.843205
H      -3.206947    0.016895   -2.883410
H       0.226868   -2.817290    0.333608
H      -0.025122   -2.054966   -2.355420
H       2.494913    0.316653   -0.410062
