18

O      -0.071854    1.416161   -0.208682
C      -0.035155    0.058076    0.204858
C      -1.430150   -0.507562    0.020635
C      -1.864631   -0.744552   -1.442109
O      -1.890906   -2.180147   -1.247991
C      -1.569862   -2.024495    0.134580
C      -0.747217   -3.035899    0.865390
C      -2.226897   -2.856415    1.185176
H       0.816977    1.777076   -0.143043
H       0.679871   -0.527315   -0.394524
H       0.269320   -0.031597    1.260413
H      -2.143163    0.066632    0.617274
H      -2.851958   -0.354332   -1.712305
H      -1.134958   -0.446103   -2.202703
H      -0.461600   -3.923081    0.310273
H      -0.013695   -2.699650    1.591187
H      -2.502029   -2.389093    2.125624
H      -2.907287   -3.628884    0.843215
