22

C      -0.378595    1.451406    2.168614
C      -0.294128   -0.077257    2.165275
C       0.869060   -0.606641    1.310765
C       1.012326   -2.121758    1.299929
C       2.417457   -2.713946    1.229200
C       1.650809   -2.780702    2.510287
C      -0.015106   -2.983050    0.604471
N      -0.928206   -2.334530   -0.183776
O      -0.037217   -4.195865    0.729751
H      -0.533966    1.844826    1.157307
H      -1.206692    1.803184    2.791404
H       0.543276    1.899729    2.555986
H      -0.170175   -0.443951    3.191347
H      -1.239917   -0.500169    1.807808
H       0.785607   -0.219536    0.283603
H       1.804758   -0.179744    1.693039
H       2.527100   -3.633450    0.667080
H       3.240895   -2.012872    1.145242
H       1.943950   -2.126743    3.324590
H       1.246280   -3.743052    2.797463
H      -0.810917   -1.374893   -0.455757
H      -1.522263   -2.917039   -0.751736
