16

N       0.048705    1.361360   -0.189728
C      -0.049697    0.015989   -0.053711
C      -1.172868   -0.745426   -0.043888
C      -0.850714   -2.155535    0.068746
O      -1.596422   -3.105475    0.125294
C       0.718985   -2.272014    0.072132
C       1.213310   -0.804660    0.073623
C       1.225218   -3.075869    1.170104
C       1.644143   -3.721120    2.093646
H       0.919569    1.818203    0.022062
H      -0.777966    1.931839   -0.123534
H      -2.191281   -0.384850   -0.105827
H       0.982752   -2.755979   -0.876218
H       1.903879   -0.592270   -0.749975
H       1.736349   -0.560003    1.004527
H       2.002548   -4.306671    2.903367
