17

C      -0.069135    1.361424   -0.217977
N      -0.037067   -0.042306    0.106582
C      -1.082044   -1.057537    0.076342
C      -1.592856   -1.549370   -1.318345
N      -0.464972   -1.403939   -2.262548
C      -0.519599   -2.579189   -1.365532
C       0.036320   -2.138085    0.015427
C       1.016741   -0.935234   -0.016810
O       2.201704   -0.762205   -0.107516
H       0.962605    1.721342   -0.229222
H      -0.510761    1.531343   -1.207807
H      -0.634998    1.929866    0.528187
H      -1.824600   -1.017225    0.874213
H      -2.618299   -1.584719   -1.664314
H      -0.793822   -1.703396   -3.179223
H      -0.530317   -3.585277   -1.763435
H       0.149503   -2.906076    0.776674
