19

C      -0.034154    1.596824    0.014494
C       0.056146    0.069738    0.099628
C       0.811278   -0.393543    1.351527
C      -1.358958   -0.540579    0.054204
C      -1.382594   -2.057596    0.089985
O      -2.031610   -2.698142    0.877359
O       0.684782   -0.464520   -1.109181
C       1.956843   -0.155058   -1.415091
O       2.493594   -0.573532   -2.398175
H       0.953341    2.064281    0.058899
H      -0.519939    1.899731   -0.916989
H      -0.621155    1.983455    0.852660
H       0.239588   -0.130059    2.246159
H       0.950067   -1.478150    1.345593
H       1.793128    0.079650    1.434154
H      -1.958830   -0.166243    0.887703
H      -1.831487   -0.225523   -0.885405
H      -0.759389   -2.551358   -0.684125
H       2.448325    0.510593   -0.685155
