25

C       0.027408    1.616938    0.086980
C      -0.014496    0.089248   -0.038783
C       0.772338   -0.476165   -1.236562
C       2.259951   -0.092534   -1.169953
C       0.627772   -2.012417   -1.361967
C      -0.833498   -2.512812   -1.370411
C       1.260603   -2.516810   -2.666348
C       2.047838   -3.812015   -2.586484
O       1.110652   -1.925313   -3.711759
H       1.031751    1.987998    0.310169
H      -0.306735    2.097538   -0.839549
H      -0.632036    1.955889    0.892189
H       0.363137   -0.363755    0.889489
H      -1.063243   -0.214237   -0.120536
H       0.354391   -0.049421   -2.157493
H       2.724985   -0.479751   -0.254388
H       2.811892   -0.489971   -2.026355
H       2.396841    0.991649   -1.176800
H       1.146528   -2.489338   -0.518762
H      -0.881607   -3.586340   -1.582798
H      -1.318275   -2.351240   -0.405455
H      -1.408756   -1.994713   -2.143912
H       1.481990   -4.584065   -2.053878
H       2.308399   -4.159451   -3.587083
H       2.964924   -3.641063   -2.009513
