13

C       0.075561    1.449792   -0.365201
C      -0.061641    0.075843    0.311924
C      -1.421895   -0.523513    0.138316
N      -2.259987   -0.670260    1.131373
O      -3.389662   -1.228607    0.599437
N      -3.256385   -1.434888   -0.743235
C      -2.061759   -1.009081   -1.041792
H       1.084494    1.845886   -0.220768
H      -0.109277    1.385992   -1.442182
H      -0.636754    2.164673    0.056217
H       0.685830   -0.613043   -0.098930
H       0.137129    0.161565    1.383587
H      -1.693490   -1.058738   -2.054997
