20

C       0.004618    1.577531    0.109170
C      -0.086625    0.066647   -0.103438
C       0.612941   -0.380309   -1.385742
O       0.764073    0.354064   -2.344461
N       1.034078   -1.686468   -1.380380
C       1.655839   -2.316635   -2.510020
C       2.964153   -3.113646   -2.291507
O       2.416457   -4.261451   -2.968627
C       1.101835   -3.673374   -3.008820
H       1.038452    1.888759    0.285197
H      -0.350687    2.103775   -0.778854
H      -0.596185    1.884624    0.969566
H       0.319130   -0.479166    0.756963
H      -1.138581   -0.237619   -0.189682
H       0.879686   -2.237268   -0.550380
H       1.728162   -1.559475   -3.289335
H       3.869518   -2.734848   -2.778003
H       3.184928   -3.321467   -1.233810
H       0.409003   -4.155727   -2.303044
H       0.664292   -3.697961   -4.012718
