15

C       0.873297    1.018107    0.056042
C      -0.309340    0.096744   -0.117575
O      -1.217897   -0.000266    0.677330
C      -0.325661   -0.740495   -1.349495
C      -1.495034   -1.446998   -1.938185
C      -0.304644   -2.264792   -1.453282
C       0.852303   -2.022147   -2.387676
O       1.670820   -2.653042   -2.966867
O       0.727119   -0.631875   -2.348508
H       1.807669    0.447583    0.027289
H       0.921659    1.727249   -0.777555
H       0.782766    1.552522    1.001729
H      -2.364983   -1.510328   -1.293337
H      -1.684993   -1.336858   -3.000342
H      -0.373792   -3.013218   -0.677611
