20

C      -0.037004    1.559548    0.041806
C       0.071879    0.050121    0.065255
O      -1.099630   -0.576884   -0.413829
C       1.325084   -0.736886   -0.250378
C       2.580940   -0.056205    0.296298
C       1.942662   -0.063379    1.723360
C       0.694929   -0.769432    1.165773
C      -0.043342   -1.851505    1.900676
H       0.849538    2.055604    0.441892
H      -0.176083    1.916626   -0.986650
H      -0.904089    1.882087    0.627096
H      -1.155826   -0.401466   -1.359362
H       1.294661   -1.498557   -1.022671
H       3.465319   -0.695099    0.241524
H       2.837724    0.918207   -0.132673
H       2.494948   -0.705337    2.414333
H       1.785861    0.904393    2.210933
H      -0.510397   -1.453789    2.810821
H      -0.832032   -2.278457    1.278914
H       0.636315   -2.655473    2.206215
