19

C       0.041911    1.604819    0.237994
C      -0.009987    0.087811   -0.025339
C       0.803354   -0.384289   -1.257596
C       0.825556    0.499573   -2.500486
C       2.198153   -0.682685   -0.689550
O       3.238408   -0.562975   -1.283212
C       2.032039   -1.128696    0.759710
C       0.644785   -0.630947    1.167931
O       0.146857   -0.751099    2.256703
H       1.072673    1.971149    0.306527
H      -0.456498    2.157950   -0.562084
H      -0.460950    1.830669    1.181571
H      -1.058559   -0.218301   -0.084576
H       0.407773   -1.374270   -1.537977
H       1.226143    1.492286   -2.279106
H       1.468951    0.052335   -3.261843
H      -0.177732    0.619355   -2.919874
H       2.059042   -2.224336    0.818257
H       2.825134   -0.758959    1.414759
