15

C       0.021433    1.417430    0.092397
N       0.110211   -0.023671   -0.030231
C       0.628926   -0.634894   -1.095582
N       1.096065    0.025786   -2.120933
C       1.587508   -0.755725   -3.131525
N       1.665686   -2.039354   -3.232226
O       1.156990   -2.752102   -2.108704
C       0.637630   -2.117556   -1.035226
N       0.175932   -2.721682   -0.016844
H       1.017000    1.873081    0.109072
H      -0.526855    1.842969   -0.753313
H      -0.499731    1.658297    1.019608
H      -0.211329   -0.641005    0.702230
H       1.981580   -0.234113   -3.999770
H       0.247985   -3.734576   -0.115142
