15

C      -0.044698    1.332713    0.057875
O       0.021884   -0.094215   -0.033340
C       0.649101   -0.570015   -1.133427
O       1.125878    0.136321   -1.989738
C       0.673446   -2.037273   -1.149335
C       0.159984   -2.902283   -0.226077
O       0.384834   -4.178044   -0.600000
C       1.057747   -4.136302   -1.790173
C       1.262027   -2.854636   -2.174494
H       0.958423    1.766553    0.076845
H      -0.589476    1.749899   -0.793052
H      -0.570272    1.546430    0.988761
H      -0.366474   -2.756559    0.701654
H       1.307838   -5.093862   -2.214663
H       1.760391   -2.500317   -3.061710
