17

C      -0.281525    1.720905    0.164509
C       0.002888    0.224030   -0.050763
C       0.801004   -0.415991    1.084275
C       2.280160   -0.079297    1.046407
O       2.800410    0.556935    0.153786
C       3.057211   -0.591092    2.163259
C       3.681509   -1.024220    3.096740
C      -1.286096   -0.527010   -0.321277
O      -1.611561   -1.565359    0.195737
H       0.657479    2.275866    0.215373
H      -0.872326    2.133182   -0.659917
H      -0.836493    1.887944    1.094104
H       0.591978    0.140733   -0.977039
H       0.403715   -0.128459    2.066118
H       0.698305   -1.508298    1.053295
H       4.247884   -1.400589    3.914016
H      -1.942799   -0.034563   -1.075476
