19

C       0.028495    1.544874   -0.194090
C       0.036850    0.040438   -0.047317
O      -1.104094   -0.596958   -0.563038
C       1.343204   -0.726593   -0.100415
C       0.567918   -0.613837    1.189405
C       1.005707    0.068712    2.499289
C       0.307142   -1.086624    3.248434
O       0.169897   -1.352952    4.405975
C      -0.126367   -1.765989    1.936960
H       0.913722    1.996939    0.261608
H       0.020059    1.830198   -1.253225
H      -0.862601    1.973536    0.276234
H      -1.087000   -0.510870   -1.522716
H       1.332774   -1.688755   -0.602981
H       2.269649   -0.167856   -0.197530
H       2.084824    0.117259    2.679983
H       0.574749    1.054692    2.702247
H      -1.209293   -1.829007    1.794491
H       0.299996   -2.764730    1.796566
