15

O      -0.277073    1.292216    0.578898
N      -0.073651   -0.088596    0.442468
C      -1.074051   -0.641143   -0.098864
C      -2.432642   -0.186889   -0.585931
C      -2.800162   -1.690913   -0.808100
O      -3.177374   -1.923140   -2.142410
C      -1.323860   -2.098360   -0.415436
C      -3.808045   -2.210291    0.125790
N      -4.599405   -2.651484    0.843728
H       0.533588    1.578453    1.013968
H      -3.043119    0.367865    0.128742
H      -2.414256    0.349202   -1.538949
H      -3.363425   -2.862665   -2.256054
H      -0.783315   -2.465846   -1.292803
H      -1.213673   -2.806255    0.408626
