19

C      -0.127031    1.575746    0.054272
C       0.057834    0.064332    0.011711
O      -1.189438   -0.594352   -0.139351
C       1.151687   -0.518114   -0.955922
C       1.794538   -1.245709    0.224713
C       2.196404   -0.262181    1.303589
C       0.757418   -0.612717    1.201235
C       2.244126   -2.639155    0.231365
O       2.303073   -3.347525   -0.746548
H       0.816005    2.098467    0.238244
H      -0.520393    1.937934   -0.903744
H      -0.837710    1.847573    0.840372
H      -1.582578   -0.299237   -0.968040
H       0.712810   -1.212432   -1.673699
H       1.791208    0.200415   -1.477992
H       2.718249   -0.691485    2.153885
H       2.567996    0.713259    1.001328
H       0.217631   -1.113784    1.995590
H       2.525157   -3.021298    1.241498
