21

C      -0.594191    1.298391    0.189606
C       0.148072   -0.032754    0.157394
C       1.006413   -0.192393   -1.161453
C       2.243950    0.343011   -0.493524
C       1.550478   -0.136548    0.794465
C       1.946803   -1.383773    1.122636
C       2.747168   -1.983107   -0.023442
C       2.386060   -0.986791   -1.147108
C       3.043634   -1.151286   -2.498893
H       0.073415    2.131069   -0.053083
H      -1.421851    1.303993   -0.528905
H      -1.014262    1.478177    1.184412
H      -0.528183   -0.854308    0.418213
H       0.626149    0.112252   -2.135031
H       2.797464    1.257347   -0.665195
H       1.344055   -2.028691    1.757077
H       3.841241   -2.037550    0.086377
H       2.399025   -3.009643   -0.198658
H       2.710999   -2.070301   -2.995061
H       2.822020   -0.312648   -3.165784
H       4.133268   -1.210990   -2.391262
