16

O       0.143891    1.421891   -0.213498
C       0.181009    0.025394   -0.007884
C      -1.230362   -0.554149   -0.000434
O      -1.832685   -0.236355   -1.298557
C      -2.141859   -1.420831   -1.868216
N      -1.955598   -2.500382   -1.231857
C      -1.399744   -2.103895    0.073181
C      -0.163008   -2.934411    0.402016
O       0.660287   -2.630979    1.225792
H      -0.325408    1.572217   -1.041902
H       0.784128   -0.486071   -0.774882
H       0.656600   -0.153294    0.957787
H      -1.827010   -0.034887    0.752658
H      -2.547775   -1.346912   -2.871086
H      -2.126308   -2.369042    0.856072
H      -0.108236   -3.885112   -0.169000
