17

C       0.009303    1.565791    0.012071
C       0.022747    0.041883    0.068937
N      -1.333934   -0.484689   -0.114168
C      -1.421304   -1.931024   -0.035408
C      -1.295410   -2.506407    1.396783
O      -1.258435   -1.815082    2.378276
C      -2.682513   -2.449183   -0.573404
C      -3.733377   -2.901009   -0.941982
H       1.024298    1.964241    0.099229
H      -0.425706    1.913717   -0.929080
H      -0.582140    1.983041    0.834859
H       0.641273   -0.352098   -0.748401
H       0.486195   -0.288780    1.011998
H      -1.944343   -0.089959    0.596380
H      -0.593837   -2.361148   -0.620671
H      -1.270896   -3.616650    1.452566
H      -4.656810   -3.286041   -1.298844
