17

C      -0.015849    1.451250   -0.266050
O       1.364519    1.660189    0.219977
C       1.206756    0.422707    0.878593
C       1.948394   -0.790401    1.567253
C       1.567871   -0.242381    2.952623
C       0.337177    0.307447    2.210485
C      -0.270541   -0.842365    1.342608
O       0.882788   -1.748088    1.336630
C       0.051023   -0.084366    0.032758
H      -0.728197    2.037128    0.321640
H      -0.089313    1.708065   -1.323965
H       2.911524   -1.213097    1.292062
H       1.442451   -0.977256    3.750533
H       2.215493    0.578977    3.272067
H      -0.301182    1.101828    2.587124
H      -1.174011   -1.407728    1.565131
H       0.225628   -0.697945   -0.851189
