19

O       0.111373    1.283669    0.250337
C      -0.084788   -0.128300    0.135556
C       0.507770   -0.711098   -1.186062
C       1.819076   -1.440084   -0.798072
C       1.732523   -1.537522    0.705461
C       0.696769   -0.865715    1.205921
C      -1.578989   -0.376198    0.242340
C      -2.514241    0.588289    0.829906
O      -2.435569    0.402456   -0.587964
H       1.052746    1.429151    0.388132
H      -0.197280   -1.421170   -1.627417
H       0.649400    0.093891   -1.909428
H       1.897737   -2.426282   -1.269654
H       2.719790   -0.890875   -1.103618
H       2.460112   -2.086572    1.294590
H       0.443933   -0.771397    2.256314
H      -1.834672   -1.436907    0.278620
H      -3.431628    0.230493    1.296067
H      -2.131274    1.539076    1.188725
