18

O       0.042444    0.937135    0.971954
C       0.080618   -0.169231    0.078255
C      -1.326704   -0.696387   -0.042271
C      -1.707704   -2.153323   -0.199057
C      -0.812475   -3.081926    0.640377
N      -1.137701   -2.265723    1.824648
C      -0.317235   -1.962259    2.867268
O       0.689221   -2.578653    3.148988
C      -2.040796   -1.392842    1.082948
H       0.942803    1.254321    1.092513
H       0.442343    0.132029   -0.917323
H       0.760463   -0.947972    0.448330
H      -1.995352   -0.039049   -0.594222
H      -2.382177   -2.492875   -0.972421
H      -1.211585   -4.097018    0.723936
H       0.254534   -3.133351    0.405941
H      -0.698460   -1.102424    3.453086
H      -2.992237   -1.081455    1.495671
