16

N      -0.098635    1.296095    0.088270
C      -0.007335    0.027513    0.031742
N       1.085993   -0.801028   -0.101133
C       0.827164   -2.230068    0.028139
C      -0.695032   -2.304497    0.011098
C      -1.462998   -3.332278   -0.751108
N      -1.451206   -3.356014    0.711354
C      -1.218334   -0.892677    0.093108
O      -2.369699   -0.562217    0.163407
H       0.819522    1.744907    0.044407
H       2.023533   -0.439002   -0.038519
H       1.286569   -2.791549   -0.794077
H       1.227682   -2.628125    0.972688
H      -2.412322   -3.037546   -1.189097
H      -0.895577   -4.077402   -1.303321
H      -0.800048   -4.066145    1.042363
