23

C       0.070030    1.626645    0.024130
C      -0.018206    0.107995    0.147600
C       0.355139   -0.672332   -1.145577
C       1.059577   -1.954331   -0.663903
C       1.096836   -3.208032   -1.487973
C       2.359348   -2.398564   -1.307397
C       0.909935   -1.994174    0.857590
C       0.897862   -0.506652    1.234995
O       2.209427    0.049563    1.233451
H       1.100460    1.937379   -0.170150
H      -0.561824    1.993716   -0.791475
H      -0.254523    2.119487    0.946783
H      -1.045864   -0.164230    0.422870
H      -0.535605   -0.894551   -1.742082
H       1.016581   -0.074375   -1.783314
H       1.025604   -4.162363   -0.975437
H       0.620306   -3.191805   -2.463112
H       2.725938   -1.836712   -2.161305
H       3.139726   -2.808973   -0.673740
H      -0.046436   -2.453533    1.139060
H       1.708150   -2.546167    1.362209
H       0.511692   -0.322142    2.241926
H       2.656358   -0.257603    0.436861
