20

C       0.007493    1.492924   -0.037368
C       1.314759    0.720987   -0.076309
C      -0.011910    0.002482    0.029543
C      -0.410549   -0.719844    1.304098
C      -0.180209   -2.221771    1.174558
N      -1.232953   -2.970630    0.459357
C       0.083331   -2.802993   -0.169516
C       0.145210   -1.878426   -1.367679
O      -0.482557   -0.628572   -1.132737
H      -0.241629    2.051023    0.859113
H      -0.332155    1.941802   -0.963580
H       1.830641    0.676281   -1.029066
H       1.965620    0.755562    0.791106
H       0.162803   -0.322355    2.147583
H      -1.471831   -0.542496    1.511856
H       0.279956   -2.710658    2.029666
H      -1.316962   -3.907796    0.844078
H       0.739939   -3.668969   -0.235598
H       1.202770   -1.730214   -1.642001
H      -0.373461   -2.318613   -2.225356
