19

C      -0.151530    1.577382   -0.040883
C       0.076301    0.081724    0.031258
O       1.130470   -0.408147   -0.854835
C       1.740344   -1.157964    0.201619
C       2.906851   -0.450335    0.954348
O       2.615897    0.944442    0.992599
C       1.948643    0.107982    1.934578
C       0.744454   -0.612174    1.254458
C      -0.082076   -1.487786    2.167373
H       0.760003    2.128762    0.185137
H      -0.491030    1.851912   -1.044995
H      -0.937742    1.866721    0.666100
H      -0.858737   -0.443721   -0.216217
H       1.872799   -2.222261   -0.013520
H       3.947483   -0.740432    1.048803
H       2.065636    0.351408    2.985696
H      -0.725611   -0.882180    2.816999
H      -0.724381   -2.163706    1.594051
H       0.555215   -2.099949    2.815706
