19

O      -0.033626    1.313459   -0.003544
C       0.001781   -0.090200    0.024219
C       1.094801   -0.657510   -0.869041
O       1.086004   -2.068611   -0.982222
C      -0.205096   -2.615760   -1.212568
C      -1.164466   -2.227033   -0.092660
C      -0.500213   -2.228038    1.329211
C      -0.520075   -0.698272    1.313679
C      -1.358513   -0.698506    0.024305
H       0.697148    1.638607    0.534123
H       0.977908   -0.183189   -1.858567
H       2.089077   -0.392906   -0.488364
H      -0.601507   -2.288457   -2.188901
H      -0.055651   -3.699574   -1.250904
H      -2.093274   -2.797227   -0.154179
H      -1.185913   -2.621358    2.083987
H       0.467221   -2.726552    1.423412
H      -0.638108   -0.055115    2.178605
H      -2.241902   -0.126834   -0.230852
