21

C      -0.001922    1.411708    0.226596
O      -0.084387    0.015764    0.419488
C      -1.306094   -0.588164    0.046826
C      -2.489190   -0.106992    0.884713
C      -1.604536   -0.676094   -1.491671
C      -1.846667   -2.209055   -1.342684
C      -1.186729   -2.118632    0.032375
C      -0.113403   -2.920936    0.611410
O      -1.451505   -2.954698    1.140713
H       1.035732    1.695625    0.419029
H      -0.258103    1.699882   -0.803690
H      -0.648594    1.973054    0.914824
H      -2.702688    0.951681    0.709956
H      -3.391110   -0.673002    0.634277
H      -2.279814   -0.258960    1.947022
H      -2.437578   -0.080278   -1.869402
H      -0.706184   -0.457911   -2.073120
H      -2.907088   -2.465968   -1.270485
H      -1.376079   -2.863424   -2.078995
H       0.209152   -3.832186    0.108838
H       0.626760   -2.439538    1.246141
