20

C      -0.040434    1.562241    0.215067
C       0.061470    0.036904    0.118196
C       0.621765   -0.481924   -1.210219
C       0.881372   -2.000823   -1.345627
C      -0.398706   -2.772226   -1.323594
C      -0.005026   -2.071491   -2.608987
C      -0.236627   -0.609530   -2.486206
N      -0.771107    0.166950   -3.333945
O      -0.692539    1.518355   -2.930376
H       0.942319    2.029622    0.085715
H      -0.698850    1.962939   -0.557869
H      -0.424571    1.862027    1.195268
H       0.719515   -0.335315    0.915090
H      -0.921445   -0.410047    0.305785
H       1.523446    0.085838   -1.473031
H       1.843587   -2.473089   -1.193864
H      -0.291793   -3.851922   -1.358809
H      -1.255738   -2.432106   -0.750718
H       0.143354   -2.611086   -3.535053
H      -1.124923    1.969607   -3.662757
