19

O      -0.011805    1.422802    0.440125
C      -0.026471    0.065369    0.043760
C      -1.433946   -0.420794   -0.069525
C      -2.542162    0.276015    0.206371
C      -3.782558   -0.522946   -0.072566
O      -4.432648   -0.129584   -1.297998
C      -3.250642   -1.984990   -0.187218
O      -3.992245   -2.752684   -1.099886
C      -1.744530   -1.825490   -0.534796
H       0.903647    1.695938    0.546014
H       0.480942   -0.080216   -0.926958
H       0.511138   -0.575449    0.765294
H      -2.557501    1.306831    0.535696
H      -4.559918   -0.432322    0.691560
H      -3.748353    0.220502   -1.880103
H      -3.328941   -2.458021    0.799383
H      -4.446683   -2.101768   -1.657182
H      -1.586207   -1.940573   -1.615148
H      -1.121316   -2.584564   -0.047997
