17

O       0.147537    1.342373   -0.188395
C       0.047045   -0.042846    0.071832
C      -1.409185   -0.534255    0.020902
C      -2.105671   -0.494669   -1.405162
C      -2.235593   -2.019108   -1.334768
O      -0.914869   -2.558185   -1.173689
C      -1.594351   -2.080757   -0.014946
C      -2.202216    0.109066    1.054344
C      -2.821900    0.659846    1.927016
H      -0.374372    1.797828    0.482756
H       0.613862   -0.552941   -0.709766
H       0.484968   -0.309796    1.046102
H      -3.063367    0.026450   -1.378738
H      -1.487642   -0.105922   -2.216593
H      -2.978914   -2.665930   -1.784690
H      -1.717355   -2.755690    0.823817
H      -3.384832    1.135212    2.692131
