17

C      -0.010976    1.324382   -0.006845
O      -0.016716   -0.083089   -0.079270
C      -1.315424   -0.633966   -0.011417
C      -1.185978   -2.123634   -0.032813
N      -2.175987   -2.992271   -0.142803
C      -1.576859   -4.219119   -0.089076
O      -2.300395   -5.358142   -0.174082
C      -0.216915   -4.112139    0.051962
N       0.007859   -2.743201    0.089623
H       1.030216    1.649420   -0.064116
H      -0.571901    1.774729   -0.839738
H      -0.447070    1.683812    0.937818
H      -1.827343   -0.305931    0.909694
H      -1.937284   -0.299632   -0.857247
H      -3.219755   -5.082301   -0.270108
H       0.572526   -4.838341    0.119212
H       0.887866   -2.261524    0.163255
