21

C      -0.199051    1.627226   -0.059810
C       0.048040    0.127535    0.028071
C       1.096798   -0.616904   -0.857513
C       2.412854    0.118225   -0.519819
C       2.406277   -0.275717    0.971351
C       2.569107   -1.819665    0.843767
O       2.671217   -2.553969    2.044683
C       1.147700   -1.746488    0.258739
C       0.838269   -0.513779    1.180066
H       0.704542    2.215281    0.122335
H      -0.589875    1.907334   -1.044834
H      -0.940506    1.933737    0.686457
H      -0.909406   -0.402467   -0.054549
H       0.890136   -0.849951   -1.902357
H       3.283865   -0.284989   -1.045545
H       2.369586    1.191040   -0.717121
H       3.009575    0.295842    1.675998
H       3.390642   -2.175959    0.214409
H       1.898063   -2.361862    2.586129
H       0.490813   -2.610339    0.155715
H       0.456452   -0.579168    2.199849
