20

C      -1.201173    0.896811    0.118165
C      -0.279549   -0.304782    0.000470
C       0.959086   -0.232067   -0.957910
O       1.461149    1.053686   -1.194567
C       1.756752   -1.059963    0.092317
C       0.693467   -0.702427    1.176531
C       1.112274    0.474484    2.034288
N       0.791383    0.395208    3.351062
O       1.692931    1.456769    1.582025
H      -0.639039    1.812334    0.314021
H      -1.755243    1.041665   -0.814954
H      -1.931992    0.760175    0.923389
H      -0.860505   -1.200146   -0.247290
H       0.820297   -0.696187   -1.938361
H       1.689896    1.430685   -0.325870
H       1.760315   -2.131234   -0.123222
H       2.777856   -0.720771    0.276977
H       0.347692   -1.530243    1.801768
H       0.325013   -0.402180    3.744376
H       1.033268    1.166549    3.952093
