14

O      -0.848304    1.333915   -0.352349
C       0.208957    0.929063    0.075147
C       1.429534    1.749451    0.128140
C       1.371152    3.291173    0.167800
N       2.648119    3.723092    0.783118
C       3.300708    2.761693   -0.183602
C       1.971298    2.694930   -1.036832
C       2.858981    1.407109    0.413898
O       3.428217    0.406936    0.741252
H       0.329401   -0.106682    0.452850
H       0.411847    3.767296    0.325062
H       2.832978    4.666885    0.442561
H       4.314186    2.954208   -0.522002
H       1.707925    2.578417   -2.078796
