18

C       0.010006    1.566110    0.099278
C       0.110563    0.054332    0.091068
C       1.349998   -0.742341   -0.206036
C       2.612443   -0.068328    0.356725
C       1.956603   -0.137604    1.749431
C       2.602425   -0.350646    3.042569
O       1.977957    0.900881    2.721253
C       0.707620   -0.781065    1.199766
H       0.874579    2.039403    0.568697
H      -0.080511    1.955253   -0.921118
H      -0.875819    1.885687    0.658210
H      -0.775221   -0.428428   -0.319378
H       1.361242   -1.533700   -0.944843
H       3.504446   -0.695958    0.285597
H       2.850331    0.929824   -0.021936
H       2.100347   -0.937026    3.812129
H       3.689676   -0.327462    3.115384
H       0.153711   -1.578002    1.682175
