21

C      -1.299612   -0.878084    0.285398
C       0.038717   -0.162306    0.081569
C       0.835895   -0.673577   -1.092228
C       1.129556   -2.179339   -1.412988
C       1.232770   -1.504453   -2.808773
O       0.146279   -0.610452   -2.394853
C       2.464669   -0.603533   -2.629277
C       2.207396   -0.025961   -1.452711
C       2.955719    0.967381   -0.635646
H      -1.893163   -0.844141   -0.631785
H      -1.153924   -1.929448    0.553127
H      -1.874359   -0.406920    1.088005
H      -0.136775    0.910119   -0.073594
H       0.658181   -0.245785    0.983782
H       2.021560   -2.643839   -0.986598
H       0.246223   -2.814634   -1.312325
H       1.059420   -2.022683   -3.750820
H       3.305080   -0.492026   -3.299297
H       3.890107    1.258715   -1.123433
H       2.364826    1.876528   -0.466422
H       3.203470    0.569232    0.356912
