19

C      -0.224297    1.636923    0.297429
N      -0.227283    0.192354    0.479918
C       0.814839   -0.586925   -0.149059
C       0.776285   -0.440542    1.352856
C       1.873206    0.347885    2.042189
C       0.247898   -1.601070    2.173027
C      -1.076284   -2.219507    1.771486
O       0.876552   -2.003263    3.128523
H       0.773946    2.078110    0.163792
H      -0.818809    1.871721   -0.591002
H      -0.700917    2.113047    1.159617
H       0.508478   -1.508458   -0.638193
H       1.627896   -0.059676   -0.648600
H       2.348633    1.065968    1.372015
H       1.481948    0.887631    2.910831
H       2.633709   -0.343347    2.409970
H      -1.068960   -2.550900    0.728744
H      -1.282798   -3.065757    2.427383
H      -1.871530   -1.472680    1.847700
