18

C       0.525811    1.513239    0.490291
C      -0.097312    0.173185    0.078274
C       0.478810   -0.368569   -1.217285
C       1.850167   -1.003873   -1.244211
C       0.650516   -1.890138   -1.439165
C       0.244063   -2.802802   -0.409854
N      -0.088162   -3.534415    0.422787
C       0.075719    0.339755   -2.474332
O       0.499987    0.069508   -3.571402
H       1.603514    1.413286    0.653753
H       0.377725    2.282023   -0.275693
H       0.076235    1.878976    1.417615
H       0.043842   -0.562397    0.875765
H      -1.182888    0.286826   -0.037277
H       2.456955   -0.824022   -2.123952
H       2.379225   -1.075252   -0.301125
H       0.460540   -2.223630   -2.453905
H      -0.674734    1.147283   -2.331449
