18

C       0.076115    1.290836    0.007347
O      -0.034554   -0.105435   -0.209906
C      -1.323331   -0.639347   -0.032573
C      -1.288699   -2.018920   -0.715579
O      -0.891616   -1.897006   -2.060256
C      -1.736340   -0.738844    1.444163
C      -3.131078   -1.273850    1.720826
O      -0.985156   -0.411714    2.331748
H       1.097878    1.570516   -0.258928
H      -0.623283    1.847992   -0.634409
H      -0.106292    1.548901    1.055038
H      -2.073079   -0.018324   -0.555527
H      -0.607894   -2.671627   -0.145644
H      -2.283557   -2.472844   -0.709621
H      -0.103212   -1.339626   -2.042808
H      -3.867083   -0.878938    1.013634
H      -3.133251   -2.365368    1.615209
H      -3.418288   -1.025559    2.743490
