21

C      -0.072930    1.576164   -0.074658
C       0.036662    0.063942    0.007893
C      -1.204751   -0.639546   -0.516686
C       1.351014   -0.672596   -0.243293
C       2.620091    0.105402   -0.112130
C       2.817653    0.527235    1.137935
C       1.716508    0.060781    2.080157
O       1.165726    1.089880    2.895792
C       0.734614   -0.661999    1.146704
H       0.863422    2.081444    0.171740
H      -0.347356    1.881842   -1.091304
H      -0.860277    1.946537    0.593268
H      -1.398555   -0.365061   -1.560311
H      -1.102703   -1.727981   -0.469563
H      -2.089399   -0.362051    0.068713
H       1.326725   -1.551545   -0.879669
H       3.267704    0.313766   -0.957244
H       3.633550    1.150300    1.486693
H       2.117795   -0.656099    2.808171
H       0.787529    1.753704    2.310952
H       0.233227   -1.539065    1.539797
