20

C      -0.118422    1.452850   -0.495377
C      -0.014925   -0.019308   -0.159497
C       1.246704   -0.740833   -0.461353
N       0.867789   -0.460597    0.938259
C      -1.316499   -0.804943   -0.177699
C      -2.370730   -0.313889    0.842315
O      -3.257678    0.472174    0.056348
C      -3.286497   -0.186528   -1.181736
O      -1.971927   -0.636450   -1.440893
H       0.865160    1.930755   -0.446268
H      -0.514088    1.585005   -1.505845
H      -0.789457    1.977460    0.192994
H       1.225207   -1.791336   -0.739205
H       2.062172   -0.174137   -0.903081
H       1.404285    0.329682    1.287566
H      -1.087816   -1.864184   -0.013671
H      -2.901023   -1.163547    1.296110
H      -1.954202    0.309205    1.635041
H      -3.982332   -1.045753   -1.152648
H      -3.593039    0.520730   -1.958005
