15

O      -0.534349    1.398956    0.204055
C      -0.179550    0.081137    0.137905
C       0.146878   -0.545184   -1.044154
C       0.179605    0.010827   -2.434623
C       1.269189   -0.551271   -3.238036
N       2.112610   -1.045800   -3.854358
N       0.411726   -1.865281   -0.736459
C       0.281359   -2.066585    0.607098
C      -0.098991   -0.875113    1.186712
H      -0.588082    1.658437    1.128007
H      -0.758778   -0.164159   -2.981398
H       0.299672    1.097572   -2.372839
H       0.766602   -2.537903   -1.394885
H       0.472459   -3.031466    1.047342
H      -0.301859   -0.708821    2.233919
