19

C      -0.293463    1.585161    0.118801
C      -0.003391    0.088125    0.100837
C       0.445843   -0.567900   -1.206923
C       1.793280   -0.130898   -1.610542
N       1.692764   -1.179336   -0.577232
C       1.307807   -0.508389    0.715193
C       2.346819    0.419027    1.358323
C       3.539929   -0.302871    1.797550
N       4.479224   -0.873118    2.154285
H       0.524971    2.176781   -0.301644
H      -1.190763    1.804653   -0.469336
H      -0.474984    1.941002    1.138818
H      -0.862225   -0.444139    0.518583
H      -0.194080   -1.151382   -1.860906
H       2.186658   -0.519152   -2.544533
H       2.157115    0.861859   -1.359825
H       1.076488   -1.301828    1.429375
H       2.655348    1.219671    0.679425
H       1.897492    0.907658    2.231137
