13

N      -0.018240    1.333617    0.098568
C      -0.030626   -0.013932    0.032886
N      -1.158064   -0.666702    0.028299
C      -1.080227   -2.027706    0.004317
O      -2.033814   -2.783809   -0.035870
C       0.312029   -2.612886    0.016829
N       0.349344   -3.960213    0.063530
N       1.408527   -1.922381   -0.011481
O       1.205842   -0.513271   -0.007656
H       0.841035    1.831337   -0.057382
H      -0.898201    1.806130   -0.016218
H      -0.539477   -4.414626   -0.082298
H       1.211066   -4.452722   -0.096597
