17

O      -0.017751    1.396199   -0.046064
C       0.050318   -0.025188   -0.043729
C       0.604988   -0.658401    1.210442
C      -0.506220   -0.865621    2.237640
C      -0.004975   -2.033167    1.414634
C      -1.315577   -2.014837    0.577601
C      -1.809959   -0.833346    1.406312
C      -1.334210   -0.651052   -0.040060
O      -2.220505   -0.360944   -1.060432
H      -0.378579    1.658727    0.809564
H       0.613386   -0.295311   -0.942635
H       1.616445   -0.464259    1.544989
H      -0.396805   -0.673597    3.296536
H       0.556023   -2.905531    1.720897
H      -1.866752   -2.864023    0.198532
H      -2.814869   -0.612077    1.736875
H      -2.192569    0.598454   -1.171797
