23

C       0.205794    1.298503   -0.277741
O      -0.208210    0.029005    0.185599
C       0.595030   -0.508828    1.205163
C       1.897278   -1.128386    0.765462
C       0.715258   -2.008107    1.145130
C       0.748824   -2.847057    2.422624
C       0.288429   -2.072977    3.668334
C       0.925625   -0.680861    3.732794
C       0.463284    0.185787    2.550971
H       1.255163    1.289540   -0.606684
H      -0.430749    1.548613   -1.130262
H       0.089196    2.081221    0.485096
H       2.148533   -1.055591   -0.286854
H       2.749937   -1.102316    1.437826
H       0.200293   -2.451957    0.299536
H       0.119049   -3.732959    2.290577
H       1.767265   -3.222650    2.586799
H      -0.803550   -1.958871    3.646262
H       0.525866   -2.648055    4.570159
H       0.660322   -0.179384    4.669711
H       2.019998   -0.773643    3.735390
H       1.003179    1.140572    2.549036
H      -0.600502    0.424448    2.681916
