16

C      -0.141251    1.488495    0.164437
N      -0.019174    0.040407    0.099337
C       0.554108   -0.543879   -0.862335
O       0.664333   -1.895455   -0.916520
C       0.100585   -2.624200    0.166618
C       0.338201   -4.097861   -0.102089
O      -0.028746   -4.964810    0.644178
C       1.207937    0.039076   -2.090904
O       1.266526    1.219485   -2.319746
H       0.835793    1.983444    0.169724
H      -0.695826    1.892998   -0.689047
H      -0.671994    1.746133    1.083919
H       0.560272   -2.330425    1.117970
H      -0.973140   -2.421025    0.258918
H       0.881343   -4.310659   -1.048962
H       1.635246   -0.723724   -2.773449
