13

N      -0.045214    1.295535    0.005977
C       0.006531    0.028823    0.000577
C      -1.182495   -0.931253    0.002790
N      -0.633532   -2.291328   -0.006577
C       0.638711   -2.154389   -0.012584
N       1.102910   -0.840257   -0.008530
C       1.626407   -3.279351   -0.022995
O       1.325780   -4.440793   -0.027870
H       0.882633    1.721837    0.003010
H      -1.813559   -0.782512    0.885921
H      -1.823547   -0.774336   -0.871675
H       2.067603   -0.553370   -0.014150
H       2.690311   -2.948211   -0.025980
