18

C       0.069978    1.516375   -0.022152
C      -0.272986    0.024105    0.021790
C      -1.734650   -0.207979    0.420676
N      -2.236251   -1.570137    0.513416
C      -1.476972   -2.550568    0.268445
N      -1.974714   -3.849148    0.362276
C      -1.233151   -4.978527    0.116986
O      -0.068492   -4.985573   -0.207377
H       1.114075    1.674962   -0.307304
H      -0.557095    2.046738   -0.747236
H      -0.083339    1.987975    0.954752
H      -0.079700   -0.424389   -0.960956
H       0.391778   -0.482878    0.732672
H      -1.923315    0.266119    1.394496
H      -2.390399    0.323896   -0.283448
H      -0.426890   -2.528500   -0.022970
H      -2.945330   -3.936588    0.629296
H      -1.834477   -5.897466    0.252643
