17

C      -0.404885    1.262204   -0.136145
C       0.196845   -0.120508   -0.050623
O       1.501407   -0.193677   -0.753243
C       2.155576   -0.589342    0.369883
O       3.312891   -0.814198    0.521254
C       0.882039   -0.596402    1.251988
C       0.955149    0.317935    2.476342
C       0.515404   -2.012501    1.668040
O      -0.340051   -2.680353    1.149472
H       0.280414    2.028676    0.234346
H      -0.650465    1.497548   -1.175439
H      -1.329591    1.305277    0.448234
H      -0.466512   -0.882079   -0.463572
H       1.334963    1.308176    2.216650
H      -0.029684    0.434722    2.939130
H       1.634330   -0.110861    3.219348
H       1.121137   -2.399453    2.515739
