17

O       0.359682    1.072633   -0.608780
C       0.047076   -0.132012    0.039311
C       0.123478   -0.189157    1.597498
C      -1.359106   -0.610090    1.657592
O      -2.271177    0.502843    1.750516
C      -2.468490    0.535066    0.313930
C      -1.448942   -0.585395    0.084927
C      -1.771060   -1.792566    2.481706
O      -1.034085   -2.707470    2.753927
H       0.014752    1.802985   -0.084451
H       0.670744   -0.893848   -0.433917
H       0.801472   -0.952877    1.983173
H       0.319395    0.764536    2.094726
H      -3.499643    0.274233    0.049579
H      -2.229212    1.511735   -0.124021
H      -1.742864   -1.434543   -0.529607
H      -2.835328   -1.767885    2.804526
