19

C      -2.481482    1.338642   -0.643493
O      -2.384520    0.024469   -0.145083
C      -1.189226   -0.610181   -0.531896
C      -1.048141   -2.034437   -0.010537
O       0.187569   -2.453005   -0.510306
C      -1.363377   -2.499887    1.455264
C      -2.877977   -2.475549    1.175330
C      -2.177225   -3.124913   -0.033173
O      -1.332582   -3.899252    0.928187
H      -3.432243    1.749770   -0.296850
H      -1.661123    1.974048   -0.275359
H      -2.463132    1.357822   -1.744193
H      -1.109911   -0.655390   -1.630270
H      -0.313810   -0.043623   -0.175003
H       0.279462   -3.359926   -0.179351
H      -0.813759   -2.309542    2.378108
H      -3.440248   -3.186137    1.781143
H      -3.367599   -1.515707    1.040140
H      -2.593821   -3.676561   -0.877018
