17

O      -0.000191    0.129589    0.644366
C      -0.039832    1.230864    0.163368
C      -1.339585    1.949289   -0.204018
C      -1.084377    3.337908   -0.798537
C       0.019418    3.256607   -1.888135
C       1.061655    3.385914   -0.729404
C      -0.063090    4.113396    0.077689
C       1.286475    2.020888   -0.124930
O       2.357304    1.537472    0.130937
H      -1.886432    1.307380   -0.905640
H      -1.953538    2.008585    0.703135
H      -2.020915    3.837138   -1.055428
H       0.058113    2.365899   -2.522818
H       0.040981    4.146557   -2.521344
H       2.010139    3.891934   -0.910129
H      -0.058855    5.183456   -0.142277
H      -0.096547    3.972068    1.162394
