12

N       0.109541   -1.107149   -0.119452
C       0.003781    0.041834   -0.058414
C      -0.070441    1.477241    0.006189
N      -1.164884    2.126454   -0.122005
C      -0.797924    3.546408    0.038659
C       0.753705    3.599461   -0.025466
N       1.089149    2.196270    0.265167
H      -1.281292    4.152958   -0.730799
H      -1.171130    3.890876    1.011150
H       1.110322    3.895778   -1.020853
H       1.191678    4.272177    0.715219
H       1.966309    1.822361   -0.067463
