21

C      -0.017882    1.495091    0.005280
C       0.034941   -0.022573   -0.005952
C      -1.364948   -0.765122    0.053468
C      -0.949558   -1.930503    0.958782
C      -0.428729   -1.150564    2.194312
C       0.699049   -0.742069    1.224269
C       0.599863   -2.150942    0.574785
C       1.008459   -1.955227   -0.853790
C       0.743082   -0.685171   -1.179152
H       0.988447    1.927806   -0.013662
H      -0.562018    1.880767   -0.864566
H      -0.526407    1.866977    0.901544
H      -2.136597   -0.151602    0.531223
H      -1.716558   -1.055411   -0.939028
H      -1.628812   -2.777847    1.049711
H      -1.075737   -0.376635    2.618761
H      -0.058800   -1.802657    2.990105
H       1.658456   -0.337289    1.554010
H       1.049258   -2.975084    1.129572
H       1.404165   -2.726536   -1.503229
H       0.857955   -0.218028   -2.151076
