19

C      -0.096051    1.502241   -0.049245
C       0.078399   -0.002280    0.064004
O       0.945096   -0.510400   -0.989764
C       1.925207   -1.233918   -0.253932
C       1.091100   -2.007632    0.817709
C       0.825806   -0.546455    1.296299
C       2.309043   -0.261172    0.905918
C       2.955264   -1.906136   -1.102828
O       3.008364   -1.871001   -2.303605
H       0.845886    2.036750    0.098918
H      -0.476533    1.758728   -1.041993
H      -0.818213    1.856074    0.694436
H      -0.902293   -0.487107   -0.034140
H       0.250126   -2.594694    0.441438
H       1.700428   -2.587231    1.512499
H       0.416183   -0.311988    2.278136
H       3.019570   -0.688826    1.614675
H       2.605363    0.747682    0.615243
H       3.705475   -2.467934   -0.498319
