13

O      -0.119939    1.336723    0.008536
N       0.019070   -0.052902    0.004050
C      -1.114043   -0.648289    0.011322
C      -1.236142   -2.152809    0.008558
C      -2.757006   -2.383968    0.019653
O      -3.316013   -3.454507    0.021247
C      -3.395790   -1.042970    0.027890
C      -2.461197   -0.073733    0.023113
H       0.795857    1.635334    0.002211
H      -0.787914   -2.613125   -0.876972
H      -0.774449   -2.617429    0.884879
H      -4.470402   -0.913308    0.036470
H      -2.633749    0.993450    0.027086
