20

O      -0.117306    1.278522    0.493729
C       0.024672   -0.060025    0.089496
C       1.066058   -0.443709   -0.928937
C       1.220785   -0.866044    0.523734
C      -1.326131   -0.697397    0.048126
C      -2.352985   -0.868667    1.194223
N      -3.097064   -1.500644    0.003367
C      -2.564237   -0.292406   -0.788758
C      -1.735109   -2.139238   -0.327306
H       0.751949    1.690026    0.520996
H       0.826605   -1.201821   -1.667125
H       1.718119    0.342282   -1.297902
H       1.975519   -0.360319    1.118474
H       1.086846   -1.912427    0.776989
H      -2.121604   -1.581809    1.990595
H      -2.836232    0.028940    1.586397
H      -3.063007    0.647553   -0.542319
H      -2.532788   -0.460173   -1.869120
H      -1.643589   -2.448271   -1.372727
H      -1.459659   -2.949920    0.353650
