23

C       0.188115    1.548207    0.386844
C      -0.002958    0.052740    0.071865
C       0.645178   -0.783741    1.192301
C      -1.510108   -0.261923    0.010258
C       0.633645   -0.363250   -1.269141
C       0.300580    0.372865   -2.626197
C       1.810346    0.516607   -2.856896
O       2.331805    1.292843   -1.774009
C       2.125969   -0.111124   -1.563519
H       1.244136    1.819961    0.440220
H      -0.275343    2.185498   -0.372054
H      -0.279524    1.786992    1.348812
H       0.193637   -0.551193    2.162718
H       0.517319   -1.857769    1.014782
H       1.718551   -0.580226    1.270128
H      -2.003906    0.307400   -0.784588
H      -1.689108   -1.326576   -0.178304
H      -1.999481   -0.003765    0.955743
H       0.443504   -1.434037   -1.414496
H      -0.202068   -0.278112   -3.344879
H      -0.233917    1.322997   -2.561434
H       2.365404    0.530885   -3.787552
H       2.989570   -0.688304   -1.252348
