21

C      -0.102104    1.546178   -0.029001
C      -0.003833    0.005968    0.022285
C       0.819029   -0.439971    1.250714
C      -1.413560   -0.650372    0.049038
N      -2.172954   -0.224342    1.216168
C      -3.224182    0.769892    1.007449
C      -3.566780   -0.654280    1.262629
C       0.665218   -0.466432   -1.200985
N       1.182583   -0.842279   -2.164135
H       0.893066    1.991728   -0.105054
H      -0.690426    1.878665   -0.888964
H      -0.576721    1.910700    0.884571
H       0.279591   -0.161017    2.157957
H       0.965008   -1.523673    1.252398
H       1.802264    0.037617    1.253524
H      -1.936162   -0.428810   -0.897173
H      -1.287114   -1.737305    0.102569
H      -3.334005    1.514428    1.790541
H      -3.377358    1.144237   -0.003426
H      -3.950051   -1.230113    0.421773
H      -3.929565   -0.972017    2.235754
