19

C      -0.048510    1.551230    0.097415
C      -0.037840    0.014151   -0.013249
C       0.692292   -0.491072   -1.234751
C       0.009527   -0.833024   -2.400049
C       0.701211   -1.293284   -3.514899
N       2.029339   -1.432591   -3.533382
C       2.690494   -1.105361   -2.427336
C       2.092161   -0.632415   -1.250390
N       2.870952   -0.384397   -0.115706
H       0.964888    1.966366    0.128446
H      -0.552420    1.997431   -0.765092
H      -0.570447    1.874075    1.003440
H       0.414092   -0.417341    0.888311
H      -1.071598   -0.345717   -0.042350
H      -1.072708   -0.745591   -2.432557
H       0.171040   -1.562748   -4.424391
H       3.774003   -1.224486   -2.456961
H       3.859254   -0.300351   -0.308705
H       2.553807    0.373098    0.470577
