17

O      -0.324756    0.387905    0.712336
C      -0.016763    1.128876   -0.187693
C       1.211102    2.003471   -0.146893
C       1.252344    3.415324   -0.787042
C      -0.081527    4.124609   -0.579301
O      -0.690967    3.647710    0.618440
C       0.228573    3.405115    1.686379
C       1.523030    2.824478    1.127305
O       2.130484    3.852058    0.289269
H      -0.613448    1.175493   -1.126705
H       2.085027    1.422460   -0.455990
H       1.688373    3.568274   -1.777182
H       0.102383    5.207928   -0.531693
H      -0.794046    3.921018   -1.385692
H       0.460500    4.334829    2.224986
H      -0.271362    2.704497    2.360471
H       2.202432    2.438709    1.889410
