22

C       0.022255    1.590658    0.107530
C       0.003783    0.066828   -0.060762
C      -1.408631   -0.536264   -0.080406
C      -2.228762   -0.158299   -1.323182
N      -3.497806   -0.872077   -1.426323
C      -3.639741   -1.927656   -0.745496
O      -2.761667   -2.560010    0.069159
C      -1.401761   -2.067351    0.059579
C      -0.612094   -2.830602   -1.003542
H       1.049119    1.965312    0.156969
H      -0.472580    2.097796   -0.726228
H      -0.487400    1.892185    1.029229
H       0.531349   -0.202757   -0.984340
H       0.573693   -0.389648    0.759881
H      -1.951414   -0.157435    0.797243
H      -2.452818    0.913536   -1.321838
H      -1.646601   -0.339302   -2.238527
H      -4.584471   -2.469408   -0.753968
H      -1.014939   -2.335827    1.048510
H      -0.954338   -2.586765   -2.013465
H       0.454857   -2.601039   -0.935178
H      -0.740705   -3.905566   -0.852637
