16

C      -0.071445    1.551580    0.035056
C      -0.023895    0.024606   -0.015823
O       0.649648   -0.441323   -1.176028
C       0.750640   -0.552853    1.181525
C       0.716857   -2.004432    1.257578
C       0.684545   -3.208817    1.344474
C       0.628135   -4.644816    1.399048
O       1.109529   -5.322018    2.279246
H       0.941491    1.966549    0.033194
H      -0.602229    1.947119   -0.837606
H      -0.595390    1.904525    0.929326
H      -1.050320   -0.373443    0.017095
H       0.158567   -0.144920   -1.948639
H       1.793935   -0.218894    1.109361
H       0.348591   -0.133508    2.111808
H       0.091707   -5.107544    0.545051
