20

C       0.505285    1.341109   -0.277630
N       1.342377    0.206638    0.163687
C      -0.098351    0.024140    0.003939
C      -0.979565   -0.532922    1.124980
C      -1.238540   -1.778339    0.219588
C      -0.659677   -1.000556   -0.988246
C      -1.538059   -0.585986   -2.190669
C      -0.483243   -1.322751   -3.035837
O       0.287803   -1.650971   -1.857098
H       0.415662    2.149358    0.443719
H       0.567954    1.666528   -1.314477
H       1.801131   -0.216133   -0.643491
H      -0.471474   -0.712256    2.073839
H      -1.879719    0.062070    1.303310
H      -0.584081   -2.615023    0.476325
H      -2.265782   -2.139613    0.127864
H      -2.539609   -1.019540   -2.204409
H      -1.607276    0.490173   -2.358690
H      -0.831285   -2.223903   -3.553496
H       0.089362   -0.707688   -3.739389
