22

C      -0.056730    1.527815   -0.070438
C       0.025705    0.001075    0.055420
C       0.759970   -0.508021    1.287196
C       0.225020   -0.121084    2.691740
C       1.289064   -0.852470    3.498903
C       1.693977   -2.053292    2.714979
C       0.875462   -2.048121    1.432242
N       2.566334   -0.849905    2.736385
C       2.249158   -0.133942    1.477542
H       0.937330    1.984369   -0.112561
H      -0.587868    1.811096   -0.984273
H      -0.592650    1.974485    0.773112
H      -0.990675   -0.414402    0.050299
H       0.518823   -0.406131   -0.837591
H       0.224603    0.958907    2.868858
H      -0.783272   -0.505515    2.880586
H       1.360782   -0.787031    4.577877
H       2.090574   -2.957055    3.161616
H      -0.098316   -2.535482    1.551031
H       1.395235   -2.510995    0.586342
H       2.891416   -0.495825    0.667558
H       2.420463    0.938603    1.609490
