18

C      -0.023501    1.579920    0.018505
C      -0.003656    0.050359    0.011560
C       0.706532   -0.518785   -1.235790
C       0.739801   -1.972806   -1.267837
C       0.756981   -3.183825   -1.275752
C       0.777095   -4.543992   -1.286120
C       0.794856   -5.754288   -1.295113
C       0.816308   -7.205960   -1.306155
H       0.992146    1.991058    0.010474
H      -0.547540    1.975038   -0.858939
H      -0.530371    1.963032    0.909076
H       0.501549   -0.325932    0.907792
H      -1.025957   -0.341833    0.045342
H       0.206288   -0.144290   -2.139893
H       1.733030   -0.128373   -1.277895
H       1.326944   -7.588819   -2.197221
H       1.338953   -7.602651   -0.428203
H      -0.199038   -7.618735   -1.302651
