18

O       0.035859    1.348755    0.227677
C       0.070641   -0.027438    0.096443
C       0.504563   -0.919358   -1.098245
N      -0.029173   -1.936857   -0.078016
C       0.751180   -1.113429    0.969637
C      -1.179719   -0.929225    0.123828
C      -2.125216   -1.085651    1.284846
C      -2.523902   -2.408910    1.785620
O      -1.683733   -1.547671    2.561465
H       0.939461    1.682583    0.252928
H      -0.076705   -0.873735   -2.022886
H       1.573792   -1.035486   -1.292376
H       1.834217   -1.230429    0.870440
H       0.408713   -1.264799    1.988770
H      -1.804738   -0.857960   -0.775917
H      -2.858406   -0.278756    1.342616
H      -3.526482   -2.559724    2.181835
H      -2.030588   -3.289944    1.381355
