22

C      -0.168408    1.536755   -0.029010
C       0.005066    0.023300   -0.001646
C       1.137247   -0.592884   -0.883468
C       2.114323   -0.277268    0.283156
C       0.863659   -0.598309    1.161457
C       0.739551   -0.145473    2.598183
C       0.686040   -2.105734    0.869097
C       0.894593   -2.100843   -0.682921
H       0.772825    2.080871    0.089169
H      -0.612150    1.853726   -0.979436
H      -0.841282    1.866513    0.770560
H      -0.978541   -0.446774   -0.133800
H       1.322091   -0.243343   -1.900785
H       2.993881   -0.919279    0.399218
H       2.420304    0.768356    0.332588
H       0.860761    0.938837    2.692988
H      -0.240370   -0.409333    3.014114
H       1.501371   -0.620250    3.227839
H       1.428794   -2.714716    1.394646
H      -0.305729   -2.464792    1.162809
H       0.015298   -2.457286   -1.227957
H       1.750415   -2.706934   -0.994706
