21

C      -0.121461    1.559818   -0.047850
C       0.035833    0.045598   -0.002149
O      -1.232061   -0.589057   -0.124047
C       1.089800   -0.609779   -0.926641
C       2.496810   -0.243946   -0.537288
C       1.762755   -1.275660    0.273931
C       0.774868   -0.594426    1.199249
C       1.018222   -0.015088    2.564802
C       0.092833   -1.197830    2.383347
H       0.836347    2.072348    0.071808
H      -0.548617    1.873297   -1.008973
H      -0.795842    1.897107    0.746009
H      -1.649261   -0.250940   -0.924393
H       0.849226   -1.041535   -1.891410
H       3.266820   -0.627603   -1.200081
H       2.728937    0.727344   -0.107694
H       2.112883   -2.296125    0.375048
H       1.987589   -0.182880    3.023625
H       0.572611    0.945942    2.802343
H      -0.975483   -1.039020    2.476322
H       0.433006   -2.171225    2.722639
