16

O       0.240129    1.065947   -0.749450
C      -0.017824    0.120186    0.280552
C      -1.351924   -0.472028    0.220909
C      -2.465901   -0.932350    0.164964
C      -3.806328   -1.452431    0.106067
O      -4.694587   -0.966390    1.080260
C      -4.393099   -1.820417   -1.249620
C      -4.038139   -2.897112   -0.257070
H      -0.485540    1.698672   -0.746079
H       0.744519   -0.658391    0.164300
H       0.133990    0.562440    1.278484
H      -4.769721   -0.013526    0.955878
H      -5.443795   -1.587656   -1.380490
H      -3.770807   -1.694158   -2.127617
H      -3.170590   -3.516872   -0.446508
H      -4.850458   -3.378785    0.274585
