20

C       0.047429    1.488069    0.194417
C       0.260917   -0.004730    0.010779
O       0.463073   -0.590686    1.284781
C       0.634652   -1.994498    1.272060
C       2.104096   -2.431749    1.017233
C       2.355324   -2.365649    2.549916
C       0.811888   -2.432394    2.754591
O       0.190840   -1.651239    3.730877
H       0.922160    1.947614    0.663446
H      -0.119611    1.969638   -0.773564
H      -0.822366    1.676673    0.830241
H      -0.614065   -0.467279   -0.474282
H       1.129169   -0.193241   -0.639286
H      -0.158232   -2.467349    0.676121
H       2.158601   -3.449944    0.621898
H       2.702079   -1.776326    0.380517
H       2.963324   -3.148226    3.008471
H       2.739933   -1.388771    2.853284
H       0.483709   -3.467063    2.895859
H       0.165082   -0.755736    3.368311
