17

C      -0.011262    1.655800   -0.288183
N      -0.156954    0.243293   -0.013513
C       0.499325   -0.556275   -0.734976
N       0.471238   -1.942062   -0.601455
C      -0.229781   -2.720218    0.286601
O      -0.985666   -2.359534    1.158310
C       0.066537   -4.223526    0.042718
C      -0.647854   -5.176288    0.959070
O       0.828435   -4.558102   -0.837637
H       0.675065    1.882614   -1.121142
H      -0.993071    2.084363   -0.519211
H       0.352336    2.165401    0.611333
H       1.168151   -0.245048   -1.551442
H       1.040109   -2.487079   -1.237736
H      -1.729209   -5.028779    0.875349
H      -0.378343   -6.203102    0.712602
H      -0.394709   -4.948342    1.999294
