15

C       0.065705    1.582429    0.013930
C       0.016928    0.050104   -0.002604
O       0.679870   -0.376009    1.181307
C      -1.456757   -0.470689   -0.006737
C      -2.212337   -0.031903    1.163091
N      -2.821224    0.318990    2.080015
C       0.683128   -0.488544   -1.197317
C       1.219929   -0.968020   -2.159865
H       1.106077    1.911777    0.010840
H      -0.440786    1.996157   -0.861250
H      -0.419957    1.951205    0.920607
H       0.863848   -1.319055    1.106096
H      -1.966356   -0.132568   -0.914836
H      -1.447431   -1.565432   -0.034765
H       1.707029   -1.376461   -3.011423
