13

C       0.273836    1.491039    0.184670
N       0.111055    0.052461    0.070742
C       0.340251   -0.546697   -0.994444
O       0.794381    0.080508   -2.141824
N       0.771082   -0.533385   -3.385528
C       0.473746   -1.774521   -3.409064
C       0.199361   -2.601219   -2.219172
O       0.015750   -3.781109   -2.233040
O       0.186601   -1.908153   -1.041012
H       1.211712    1.706979    0.708832
H       0.283413    2.018255   -0.774774
H      -0.538853    1.882185    0.802576
H       0.460561   -2.254367   -4.380625
