16

C      -0.006921    1.477699    0.041942
N       0.085953    0.033462   -0.016594
C       0.545339   -0.627888   -1.121138
O       0.910006   -0.051918   -2.136406
C       0.576382   -2.103969   -1.015736
C       1.012345   -2.926936   -2.039784
N       0.899424   -4.190792   -1.588742
N       0.416435   -4.271029   -0.329416
C       0.220020   -3.005951    0.019429
H       0.618022    1.887167    0.843927
H       0.345084    1.862871   -0.915527
H      -1.040208    1.806613    0.201802
H      -0.198842   -0.500354    0.786542
H       1.379830   -2.678108   -3.021543
H       1.128648   -5.041721   -2.074555
H      -0.171208   -2.794319    1.004718
