20

C       0.263435    1.463156    0.036248
C      -0.039419   -0.040856    0.011459
C      -1.543676   -0.286392   -0.038879
N       0.615137   -0.667087   -1.173975
C       2.018330   -0.939953   -0.827903
C       2.082648   -0.885796    0.696437
O       3.051670   -0.839072    1.412921
C       0.650567   -0.760048    1.201505
O       0.583002   -0.141042    2.452628
H       1.340296    1.661296    0.016590
H      -0.181848    1.946988   -0.836766
H      -0.136079    1.914873    0.946950
H      -1.974514    0.151474   -0.944641
H      -1.768862   -1.359508   -0.034388
H      -2.033814    0.161607    0.829765
H       0.142003   -1.539515   -1.383258
H       2.360092   -1.908181   -1.207000
H       2.698671   -0.182158   -1.236977
H       0.235184   -1.786203    1.244830
H       1.485398   -0.162376    2.807883
