21

C       0.189949    1.317775    0.254121
O      -0.281302    0.067915   -0.204189
C       0.502879   -0.475681   -1.230919
C       1.801579   -1.241936   -0.818533
C       0.874985   -2.372630   -0.314490
C       0.061151   -1.931580   -1.575416
C       1.072414   -2.285600   -2.677091
C       0.829344   -1.740831   -4.075264
O       2.277070   -1.710846   -2.087811
H       1.189167    1.244248    0.707460
H       0.235899    2.054952   -0.562091
H      -0.515356    1.670782    1.010030
H       0.625315    0.240807   -2.054399
H       2.624492   -0.812765   -0.248723
H       1.287386   -3.384172   -0.296583
H       0.366988   -2.127030    0.616016
H      -0.984440   -2.193232   -1.732117
H       1.204436   -3.374904   -2.739909
H       0.611804   -0.669711   -4.070371
H       1.715413   -1.903112   -4.696101
H      -0.012406   -2.263522   -4.542291
