21

C       0.022447    1.468273    0.165293
C      -0.025450   -0.021539   -0.018911
C       0.655171   -0.776667   -1.185704
C       0.702425   -1.860432   -0.090790
C       1.736228   -2.945372   -0.005135
O       0.834631   -0.782716    0.910279
C      -0.788777   -2.225711    0.149442
O      -0.961688   -2.881755    1.386793
C      -1.366405   -0.774595    0.118196
H       1.045305    1.842446    0.067279
H      -0.602656    1.963567   -0.584967
H      -0.353160    1.745123    1.155954
H       0.084358   -0.965267   -2.099367
H       1.648661   -0.383527   -1.410467
H       2.745987   -2.526725   -0.018335
H       1.602326   -3.525809    0.911919
H       1.631604   -3.628657   -0.854716
H      -1.205474   -2.886970   -0.614712
H      -0.506016   -2.324539    2.032765
H      -1.884889   -0.543383    1.052202
H      -2.046958   -0.586313   -0.716962
