18

C       0.000891    1.567561    0.003934
C       0.053014    0.040373   -0.013582
C       0.700996   -0.509235   -1.286522
C       0.853720   -2.026362   -1.189789
N       1.561537   -2.360256    0.034199
C       1.421325   -1.679667    1.225452
O       1.848928   -2.116210    2.280762
N       0.819870   -0.441271    1.129389
H       1.008475    1.988497   -0.070211
H      -0.599035    1.941789   -0.831241
H      -0.453914    1.934333    0.930551
H      -0.982827   -0.338838    0.031535
H       0.089302   -0.250541   -2.155819
H       1.687237   -0.048997   -1.414758
H      -0.140033   -2.501677   -1.230386
H       1.424629   -2.406209   -2.043791
H       1.900991   -3.299886    0.162351
H       0.643189   -0.028486    2.032165
