20

C       0.518270   -0.872528    1.363510
C      -0.048620   -0.191714    0.111620
C       0.744443   -0.413648   -1.194719
C       2.224251    0.017473   -1.087575
C       2.361184    1.471324   -0.693038
O       2.910794    1.862523    0.303915
C       0.684413   -1.879884   -1.692447
C      -0.678522   -2.336073   -1.956860
N      -1.762576   -2.678536   -2.164776
H       0.609976   -1.956930    1.240978
H       1.501186   -0.474422    1.631691
H      -0.146613   -0.701638    2.214873
H      -1.078625   -0.525873   -0.055624
H      -0.108916    0.887930    0.294015
H       0.270955    0.203325   -1.969411
H       2.772986   -0.591762   -0.363935
H       2.702887   -0.106023   -2.069388
H       1.896709    2.188797   -1.409886
H       1.265882   -1.984860   -2.615388
H       1.140801   -2.553191   -0.958263
