21

C      -0.275515    1.535031    0.020462
C       0.016748    0.027859   -0.006968
C       0.932454   -0.382388   -1.202728
C       2.326604   -0.529974   -0.617363
N       2.750610    0.635585    0.190818
C       2.227745   -0.579116    0.860646
C       0.778106   -0.472454    1.237878
C       0.301867   -0.249149    2.621267
N       0.285577   -1.608677    2.043260
H       0.654627    2.102758    0.087175
H      -0.803883    1.837684   -0.890513
H      -0.907301    1.801726    0.873849
H      -0.940118   -0.503726   -0.077214
H       0.620871   -1.349160   -1.614169
H       0.891393    0.350593   -2.014780
H       3.081583   -1.091010   -1.158826
H       3.765188    0.637031    0.263344
H       2.882669   -1.182635    1.479362
H       1.013619   -0.103302    3.429839
H      -0.644481    0.267227    2.761412
H      -0.662728   -1.844853    1.759495
