17

C       0.039277    1.551337    0.088938
C       0.052661    0.058680    0.035658
C       0.025601   -0.727238   -1.072762
N      -0.029263   -0.406398   -2.429065
O       0.043583   -2.069707   -0.703209
C       0.081271   -2.111286    0.650973
N       0.182642   -3.363404    1.250519
C       0.081998   -0.847373    1.156362
O       0.028809   -0.541647    2.498545
H       0.940948    1.950951    0.570628
H      -0.012098    1.962972   -0.921420
H      -0.818128    1.923778    0.661394
H      -0.900961   -0.692953   -2.865182
H       0.731218   -0.824400   -2.956632
H      -0.527852   -4.011100    0.925548
H       0.115218   -3.266648    2.256793
H       0.795687   -0.005463    2.726785
