18

C       0.272647    1.825162   -0.273284
C       0.185476    0.326507   -0.134963
N       1.431367   -0.406704    0.035879
C       0.473376   -0.406785    1.156605
C       0.865096    0.320424    2.405500
O       1.702525    1.192268    2.445021
C       0.123587   -0.099737    3.655664
C       0.862029   -0.127831    4.936358
O      -0.051387    0.912821    4.644331
H       1.053191    2.225223    0.374486
H       0.509769    2.086789   -1.310056
H      -0.682804    2.294210   -0.016314
H      -0.590703   -0.146201   -0.737437
H       1.396862   -1.306490   -0.436254
H      -0.116287   -1.306571    1.321646
H      -0.730021   -0.764986    3.529066
H       0.554405   -0.832017    5.708147
H       1.910993    0.161003    4.924786
