23

C       0.861668    1.402975    0.197484
C       0.458248   -0.058066    0.096676
O       0.758475   -0.695699    1.327936
C       0.427363   -2.076670    1.360097
C       1.551092   -2.960014    0.744770
C       2.205351   -3.011644    2.156693
O       3.194191   -2.025570    2.359731
C       0.804029   -2.651282    2.753108
C       0.701761   -1.783696    3.995520
H       1.937404    1.497036    0.373379
H       0.617472    1.929189   -0.730053
H       0.335531    1.890141    1.023173
H      -0.620319   -0.150501   -0.109723
H       0.989231   -0.550074   -0.732861
H      -0.601473   -2.222790    1.003047
H       1.176998   -3.934077    0.416865
H       2.156877   -2.518446   -0.050504
H       2.650088   -3.958479    2.472728
H       2.812590   -1.188239    2.064619
H       0.240892   -3.581724    2.890050
H       1.274531   -0.861108    3.886684
H      -0.339132   -1.511438    4.199938
H       1.088439   -2.319020    4.868832
