21

C      -0.427428    1.612763    0.016001
O      -0.403813    0.328881    0.598131
C      -1.328902   -0.559573    0.027089
C      -0.976300   -1.217244   -1.344166
C      -1.362786   -2.601443   -0.740883
O      -0.546041   -3.716166   -0.997624
C      -1.327078   -1.952795    0.652566
C      -0.409094   -2.378311    1.763709
C      -1.906814   -2.414492    1.951950
H       0.303183    2.225638    0.549448
H      -0.156268    1.586882   -1.050116
H      -1.419853    2.081867    0.106737
H      -2.331431   -0.102472    0.016413
H      -1.508489   -0.884992   -2.237800
H       0.102993   -1.159213   -1.519010
H      -2.371873   -2.909244   -1.031912
H       0.352374   -3.482443   -0.738869
H       0.105479   -3.328069    1.653404
H       0.156628   -1.600882    2.263501
H      -2.357100   -1.669084    2.600220
H      -2.393687   -3.384617    1.972412
