19

C      -0.009337    1.438374   -0.025400
C       0.048105   -0.060389    0.032465
O      -0.145809   -0.658641   -1.232791
C       0.016645   -2.055467   -1.053805
C      -1.242388   -2.661884   -0.377169
C      -0.591494   -2.307689    0.977646
C      -0.453257   -0.793202    1.265478
C       1.040652   -0.811134    0.857988
C       0.817044   -2.229903    0.310707
H       0.729814    1.821234   -0.735853
H      -0.999410    1.776182   -0.347054
H       0.198096    1.868988    0.957859
H       0.385354   -2.489179   -1.985010
H      -2.198673   -2.207371   -0.647793
H      -1.292314   -3.746358   -0.518387
H      -0.773607   -2.918315    1.862969
H      -0.937777   -0.258813    2.075986
H       1.923503   -0.396155    1.327603
H       1.566993   -3.011711    0.395431
