20

C      -0.485113    0.994376   -0.030805
O       0.327920   -0.160690   -0.045995
C       0.992716   -0.383936    1.162673
C       0.161435   -1.019363    2.326652
N       1.080605   -2.154561    2.287642
C       1.835008   -1.682958    1.123864
C       0.961713   -3.352391    2.922083
C       1.988872   -4.398665    2.518676
O       0.092777   -3.545993    3.754831
H       0.104112    1.899565    0.182419
H      -0.932401    1.086835   -1.022697
H      -1.290102    0.921248    0.715186
H       1.557194    0.506877    1.470773
H       0.150390   -0.482662    3.279981
H      -0.865028   -1.279231    2.044262
H       1.661844   -2.256419    0.205813
H       2.911965   -1.568750    1.286414
H       3.009770   -4.012678    2.603763
H       1.871551   -5.267273    3.165897
H       1.839863   -4.706038    1.477568
