17

C      -0.063640    1.489674   -0.020830
C      -0.064040   -0.017996    0.015254
C      -0.521969   -0.797689    1.195667
N       0.925184   -0.688303    0.886853
C       1.522294   -1.769361    0.165674
N       2.397993   -2.513862    0.698029
C       0.976896   -1.794393   -1.242574
O      -0.430289   -2.120741   -1.250764
C      -0.053090   -0.747378   -1.318803
H       0.728307    1.868264   -0.676534
H      -1.022404    1.869484   -0.390560
H       0.107079    1.894029    0.979398
H      -0.820318   -0.273946    2.099525
H      -1.004612   -1.752214    1.020019
H       2.723509   -3.210514    0.025702
H       1.556864   -2.179174   -2.077498
H      -0.311680   -0.222810   -2.234156
