16

O       0.132732    1.326805    0.292018
C       0.112218   -0.022279    0.033303
C       0.688375   -0.798750   -1.138993
N      -0.260229   -1.929029   -0.778376
C      -1.095286   -0.894494    0.010168
C      -0.127969   -1.075020    1.155324
C       0.318466   -2.399804    0.557034
C      -0.466207   -3.576820    1.086330
O       0.013024   -4.456703    1.753918
H       0.938406    1.538906    0.776941
H       0.390574   -0.375814   -2.101668
H       1.747995   -1.076349   -1.159914
H      -2.158277   -0.728705   -0.082248
H      -0.236676   -0.767804    2.188318
H       1.383768   -2.650318    0.540332
H      -1.548120   -3.559212    0.827449
