20

C      -0.066298    1.530665    0.064579
N       0.104020    0.084715    0.027148
C       1.124222   -0.586255   -0.891977
C       2.344129    0.291819   -1.015083
C       2.948756    0.338318    0.183820
C       2.284781   -0.597339    1.115799
C       1.437031   -1.544580    0.300317
C       0.679695   -0.591785    1.161587
C      -0.061282   -0.749498    2.454556
H       0.835589    2.088988    0.356299
H      -0.390404    1.883567   -0.920008
H      -0.861557    1.766127    0.780134
H       0.672482   -0.970207   -1.806979
H       2.551732    0.927266   -1.866908
H       3.757701    0.999604    0.471144
H       2.767626   -0.946602    2.021118
H       1.487615   -2.626620    0.296784
H       0.483527   -1.411972    3.133652
H      -0.187375    0.213068    2.963045
H      -1.056240   -1.173774    2.282081
