20

C      -0.329100    1.426037   -0.573045
O      -0.257856    0.026736   -0.701065
C       0.987534   -0.501254   -0.293603
C       0.941586   -2.004038   -0.498366
C       1.039355   -2.629044   -1.879066
C       2.478427   -2.880933   -2.202384
C       3.339507   -2.423456   -1.040340
C       2.153890   -2.907750   -0.181875
N       1.720058   -3.862009   -1.347907
H      -0.190760    1.748798    0.471377
H       0.430040    1.933361   -1.189805
H      -1.321398    1.736328   -0.909504
H       1.802837   -0.042838   -0.876136
H       1.177211   -0.268327    0.770010
H       0.056551   -2.403810    0.007276
H       0.262820   -2.701453   -2.631572
H       2.797460   -3.145932   -3.204303
H       4.198681   -3.087948   -0.917099
H       3.668906   -1.381770   -0.970989
H       2.306059   -3.314590    0.816110
