23

C       1.148851   -0.302394    1.094021
C       0.306916   -0.217676   -0.182573
C      -1.169223   -0.593248    0.025397
C      -1.993352   -0.329272   -1.231849
C      -3.462734    0.007741   -1.163222
C      -2.462373    1.064770   -1.561192
C      -1.323465   -2.081799    0.374108
C      -2.402126   -2.448039    1.374902
O      -0.629869   -2.921980   -0.153732
H       2.182512    0.000818    0.901823
H       0.752642    0.352593    1.878857
H       1.173890   -1.323819    1.486689
H       0.348275    0.799014   -0.589289
H       0.723553   -0.886505   -0.942724
H      -1.591475    0.007680    0.842649
H      -1.685846   -0.940479   -2.076334
H      -4.122046   -0.396656   -1.923162
H      -3.922022    0.101111   -0.184255
H      -2.251032    1.852231   -0.844787
H      -2.432756    1.387519   -2.595947
H      -2.155039   -2.022516    2.354992
H      -3.364077   -2.017955    1.076473
H      -2.486369   -3.532403    1.458203
