21

O       0.544106    0.736885   -0.590612
C       0.130712   -0.521615   -0.117512
C       0.232744   -0.822183    1.391432
C       1.435771   -1.242278    2.174900
C       0.832821    0.127711    2.389309
C      -1.199495   -1.382721    1.415290
C      -1.378328   -0.817598   -0.004124
C      -2.448492    0.137053   -0.453057
C      -2.326727   -1.231565   -1.084283
H       0.088350    1.402337   -0.062266
H       0.663528   -1.253318   -0.735014
H       1.303868   -1.986314    2.954397
H       2.387328   -1.302223    1.655472
H       1.379849    0.982396    2.002864
H       0.291405    0.314413    3.311360
H      -1.236673   -2.476721    1.454616
H      -1.865719   -0.982167    2.185714
H      -3.283287    0.324590    0.214860
H      -2.141234    0.992421   -1.047198
H      -1.948519   -1.289878   -2.100363
H      -3.081861   -1.973826   -0.844647
