18

C       0.104858    1.496607    0.043668
C       0.069345    0.041870    0.050562
C       0.050283   -1.162643    0.059713
C       0.045194   -2.606806    0.031764
C      -0.476816   -3.338493    1.251912
N      -1.242921   -3.354881    0.028607
C      -2.482068   -2.588693   -0.004141
C       1.096345   -3.209671   -0.755819
C       1.984916   -3.705589   -1.394536
H       1.133679    1.861261   -0.049523
H      -0.469450    1.906868   -0.794253
H      -0.311202    1.910743    0.968634
H      -0.007997   -4.275469    1.539223
H      -0.813666   -2.706664    2.072795
H      -2.445595   -1.655958    0.576124
H      -2.723000   -2.341813   -1.041954
H      -3.280537   -3.222191    0.394173
H       2.762702   -4.145417   -1.967962
