20

C       0.108337    1.539358   -0.082906
C       0.022899    0.014182    0.013924
C       0.706238   -0.545363    1.265754
C       0.643089   -2.074971    1.352116
O       1.300324   -2.665804    0.221800
C       2.308196   -3.577721    0.646244
C       2.299355   -3.501738    2.147112
C       1.351579   -2.661888    2.544608
H       1.150597    1.876407   -0.113489
H      -0.386748    1.910139   -0.986010
H      -0.367660    2.020931    0.779004
H      -1.030692   -0.296502    0.009487
H       0.481484   -0.445018   -0.868291
H       1.760334   -0.240420    1.288045
H       0.235196   -0.127612    2.166630
H      -0.419021   -2.379131    1.336082
H       2.079120   -4.591792    0.279205
H       3.279333   -3.291918    0.212407
H       2.975377   -4.069286    2.774027
H       1.094422   -2.403163    3.564017
