19

O      -0.011023    1.423701    0.013169
C      -0.013183    0.016877    0.208109
C      -1.387117   -0.504186   -0.198803
C      -1.500243   -2.009001   -0.066953
O      -1.317023   -2.505972    1.299301
C      -2.512543   -3.282540    1.200309
C      -3.714090   -2.386089    1.049922
C      -2.855549   -2.721659   -0.152178
O      -3.323889   -3.358175   -1.282670
H       0.827052    1.768578    0.334340
H       0.765397   -0.471396   -0.401304
H       0.176859   -0.246957    1.258395
H      -2.147107   -0.007910    0.413407
H      -1.576291   -0.227824   -1.244073
H      -0.779605   -2.516572   -0.723098
H      -2.516621   -4.282470    1.616137
H      -4.664066   -2.913144    1.049520
H      -3.723652   -1.400453    1.506557
H      -3.987969   -2.795521   -1.695770
