12

N       0.006057    1.362719    0.165253
C      -0.028730   -0.018185    0.050476
N      -1.103781   -0.765101    0.067062
C      -0.632076   -2.070334    0.023320
C       0.737803   -2.093804   -0.032635
N       1.116452   -0.769278   -0.012830
C      -1.496066   -3.196192    0.024625
N      -2.183728   -4.127829    0.023831
H       0.588457    1.825602   -0.521585
H      -0.933630    1.737952    0.142690
H       1.446995   -2.901066   -0.091978
H       2.060215   -0.423503    0.037877
