22

C       0.046001    1.568664    0.032323
C      -0.003365    0.033964    0.050921
C       0.861697   -0.507334    1.199516
C      -1.471776   -0.528993    0.047810
C      -1.460544   -2.077138    0.013601
C      -2.290118   -0.058397    1.273610
C      -2.143254   -0.063570   -1.173565
C      -2.698810    0.295854   -2.178236
H       1.071980    1.910230   -0.138539
H      -0.584478    1.979878   -0.759984
H      -0.282196    1.994646    0.986694
H       0.440112   -0.318974   -0.889561
H       0.471998   -0.209159    2.178647
H       0.945705   -1.596814    1.185659
H       1.875193   -0.100879    1.119467
H      -1.082527   -2.486763    0.954157
H      -2.473583   -2.459249   -0.138161
H      -0.834418   -2.447211   -0.803801
H      -2.385529    1.029200    1.300802
H      -3.298502   -0.479772    1.235243
H      -1.821243   -0.390418    2.204590
H      -3.189398    0.616756   -3.063631
