17

C       0.009533   -1.114528    0.469479
C       0.010532    0.054111    0.189861
C       0.024598    1.474634   -0.177721
O      -0.742944    2.264575    0.742152
C       0.102558    3.207098    1.377214
C      -0.513466    4.516377    1.791017
C      -0.126831    3.491640    2.839692
C       1.435927    3.062578    0.759694
C       1.413338    2.082944   -0.136560
H       0.003934   -2.145629    0.723914
H      -0.431071    1.576827   -1.175167
H       0.076582    5.421996    1.697422
H      -1.569537    4.634658    1.575858
H      -0.928611    2.934408    3.310664
H       0.731597    3.685805    3.474024
H       2.281474    3.681108    1.030970
H       2.226675    1.716731   -0.747052
