20

C       0.005706    1.592199    0.064773
C      -0.054008    0.064059   -0.013505
C       0.746682   -0.593180    1.130165
C      -1.475354   -0.432257   -0.011162
N      -2.510932    0.257687    0.283635
C      -3.662582   -0.644281    0.170538
C      -3.114642   -2.000513   -0.265738
N      -3.790566   -3.050600   -0.497032
N      -1.741909   -1.767923   -0.333006
H       1.046154    1.929561    0.035464
H      -0.535622    2.052013   -0.765129
H      -0.452352    1.947805    0.991001
H       0.395560   -0.259170   -0.964182
H       0.341901   -0.291937    2.101501
H       0.718077   -1.686064    1.079929
H       1.794346   -0.281663    1.085786
H      -4.186404   -0.725207    1.129410
H      -4.387969   -0.260805   -0.554918
H      -3.196294   -3.833973   -0.773614
H      -1.060555   -2.443140   -0.636478
