12

C       0.018346    1.609444    0.011492
N       1.489811    1.939742    0.048191
C       1.991583    0.817654   -0.251447
O       2.593123   -0.005346    0.714648
C       1.328598   -0.779314    0.478405
C       0.017221    0.058917    0.020898
C       1.132632   -0.325486   -0.890799
H      -0.392888    2.057381    0.920798
H      -0.537604    2.004161   -0.852062
H       1.296080   -1.750624    0.956638
H      -0.913523   -0.503217    0.058421
H       1.194399   -0.796107   -1.862047
