16

O       0.289986    1.001609    0.644733
C      -0.020269    0.025095   -0.340958
C      -1.390675   -0.478016   -0.255999
C      -2.535377   -0.846606   -0.186406
C      -3.906142   -1.335591   -0.079138
C      -3.981772   -2.784403    0.373789
C      -5.099359   -3.649782   -0.017911
O      -3.815555   -3.777029   -0.633893
H      -0.388835    1.682727    0.596660
H       0.163738    0.409738   -1.356977
H       0.690726   -0.793176   -0.181659
H      -4.461611   -0.713840    0.636531
H      -4.420916   -1.244899   -1.043313
H      -3.459115   -3.000004    1.306024
H      -5.397213   -4.476385    0.625196
H      -5.886972   -3.253726   -0.658388
