16

C       0.023318    1.485190   -0.009140
C       0.035561    0.029384   -0.016719
C       0.050495   -1.175611   -0.010983
C       0.019745   -2.643859   -0.020778
N      -1.312050   -3.230843    0.171723
C       0.618142   -3.171503   -1.351361
C       0.786787   -4.622642   -1.357901
N       0.952225   -5.765840   -1.369216
H       0.694741    1.882988    0.759470
H       0.346016    1.890247   -0.974353
H      -0.980971    1.872610    0.194264
H       0.651357   -3.020151    0.792804
H      -1.642153   -3.015078    1.107597
H      -1.969094   -2.786643   -0.465170
H      -0.035591   -2.880548   -2.181180
H       1.588792   -2.698786   -1.529473
