21

C       0.100617    1.553029    0.231215
C      -0.010794    0.056321   -0.110704
C      -1.413427   -0.475067   -0.052126
C      -2.235582   -0.739007   -1.133573
N      -2.051042   -0.586995   -2.528075
N      -3.453116   -1.188728   -0.658108
C      -4.575547   -1.592868   -1.476777
C      -3.405973   -1.226405    0.713228
C      -2.169511   -0.783209    1.116564
H       1.140670    1.894561    0.189805
H      -0.485885    2.160348   -0.466371
H      -0.282060    1.752037    1.237171
H       0.401528   -0.115913   -1.113400
H       0.627493   -0.512032    0.577834
H      -1.478317    0.221693   -2.736123
H      -1.606984   -1.394535   -2.956156
H      -4.614624   -2.681117   -1.610609
H      -5.509967   -1.266932   -1.012113
H      -4.474668   -1.124431   -2.456832
H      -4.255932   -1.571939    1.280336
H      -1.834047   -0.692381    2.139345
