20

C       0.178489    1.449244    0.176780
C      -0.066181   -0.051611   -0.030386
N      -1.491622   -0.382788   -0.063661
C      -2.200557   -0.515766    1.109587
N      -3.575545   -0.630839    0.928771
O      -1.680005   -0.517996    2.211032
C       0.600077   -0.562431   -1.290953
C       1.946869   -1.180054   -1.224725
N       0.760494   -2.004064   -1.516383
H       1.250774    1.662378    0.228772
H      -0.243292    2.033001   -0.649457
H      -0.287893    1.776751    1.108724
H       0.334724   -0.592736    0.832436
H      -2.000852   -0.100380   -0.887836
H      -3.896234   -1.085303    0.086332
H      -4.042004   -0.950839    1.764381
H       0.336289   -0.013207   -2.195794
H       2.642783   -1.068105   -2.051200
H       2.415925   -1.266095   -0.247522
H       0.473599   -2.507571   -0.679367
