23

C      -0.137239    1.590638   -0.275770
C       0.149223    0.090694   -0.271261
C       0.883781   -0.647736   -1.395092
C       1.308835   -1.735292   -0.442614
C       2.368680   -0.831527   -1.008371
C       2.617874   -0.180377    0.357035
C       3.593836   -1.019745    1.195332
C       3.045623    1.288994    0.426031
C       1.147705   -0.632234    0.687477
H       0.711293    2.200768   -0.583674
H      -0.960397    1.806182   -0.966698
H      -0.452477    1.929607    0.718050
H      -0.811581   -0.423756   -0.137352
H       0.570170   -0.770855   -2.425174
H       1.167782   -2.805750   -0.462177
H       3.104143   -1.076728   -1.766741
H       4.610373   -0.961215    0.789514
H       3.630944   -0.650764    2.227123
H       3.301979   -2.073576    1.222600
H       2.608484    1.894023   -0.367945
H       2.776518    1.739922    1.388218
H       4.134743    1.366699    0.327251
H       0.872178   -0.812616    1.727103
