18

C      -0.134615    1.556096   -0.078833
C       0.049434    0.036120   -0.082706
N       0.793530   -0.443798   -1.227853
N       0.169393   -0.560199   -2.444439
C       1.111471   -1.030797   -3.243549
O       0.866120   -1.290738   -4.546095
C       2.351406   -1.209003   -2.597412
C       2.098238   -0.807933   -1.295518
N       2.910578   -0.811299   -0.155149
H       0.828164    2.074554   -0.021145
H      -0.637991    1.874808   -0.995046
H      -0.740916    1.864401    0.778684
H       0.580243   -0.301462    0.812453
H      -0.925488   -0.460030   -0.098563
H      -0.061499   -1.072355   -4.701426
H       3.280457   -1.557203   -3.015779
H       3.835528   -1.160975   -0.367433
H       2.997519    0.100568    0.279088
