19

C      -0.019416    1.615624   -0.034304
C      -0.004349    0.089426    0.017439
C       0.745221   -0.528660   -1.192699
C       1.908389   -1.310418   -0.554592
O       2.100718   -0.713418    0.724240
C       0.803847   -0.467832    1.223079
O      -1.361102   -0.425338   -0.021016
C      -2.151974   -0.249881    1.051496
O      -3.285564   -0.628855    1.081744
H       1.009533    1.987346   -0.023987
H      -0.507175    1.963488   -0.949368
H      -0.544707    2.047368    0.823281
H       0.068649   -1.163207   -1.766806
H       1.114867    0.259737   -1.852085
H       1.652443   -2.375365   -0.442458
H       2.848546   -1.235457   -1.104618
H       0.890188    0.228551    2.060871
H       0.328570   -1.398341    1.575496
H      -1.655597    0.268698    1.892903
