15

O       0.078248    1.423135   -0.065015
C       0.038063    0.015258   -0.007178
C       0.805573   -0.546953    1.188042
O       0.122583   -0.388717    2.448497
C      -1.137292   -0.862748    2.573957
O      -1.588978   -1.143250    3.648496
C      -1.964635   -0.930480    1.312684
O      -2.275293    0.365512    0.767454
C      -1.407624   -0.486971    0.021692
H      -0.628346    1.741765    0.512334
H       0.532460   -0.351914   -0.913800
H       1.018070   -1.613008    1.034325
H       1.748917   -0.012116    1.307368
H      -2.804944   -1.616686    1.367258
H      -1.839965   -0.870103   -0.900190
