23

C      -0.306665    1.609417    0.487974
C      -0.164595    0.241969   -0.204377
C      -1.406386   -0.598292   -0.139360
C      -2.166700   -0.984115   -1.167950
C      -3.315964   -1.860212   -0.745137
C      -3.345650   -1.702840    0.807144
C      -4.430633   -0.708232    1.231401
O      -3.522600   -2.943494    1.488440
C      -1.933840   -1.169811    1.159475
H       0.623138    2.181535    0.411779
H      -1.106325    2.197941    0.027145
H      -0.542603    1.499998    1.551083
H       0.113594    0.393567   -1.253559
H       0.667876   -0.303355    0.262679
H      -1.969039   -0.734076   -2.205823
H      -4.269612   -1.580465   -1.211361
H      -3.133470   -2.913205   -0.999624
H      -5.425224   -1.066794    0.937886
H      -4.419429   -0.570784    2.316807
H      -4.274722    0.264134    0.753022
H      -4.427169   -3.237100    1.336361
H      -1.308109   -2.003938    1.503620
H      -1.963498   -0.442366    1.978899
