14

N      -0.041257    1.203730   -0.324034
C      -0.003560   -0.013445   -0.041504
O       1.032401   -0.815157    0.399392
C       0.151025   -1.972707    0.512365
C      -1.032251   -1.132977   -0.018369
C      -2.234939   -0.955524    0.919028
C      -3.269423   -0.084263    0.364546
N      -4.105035    0.578934   -0.077791
H       0.866276    1.654867   -0.200154
H       0.490473   -2.792639   -0.123881
H       0.072701   -2.304464    1.551794
H      -1.366338   -1.423401   -1.016534
H      -2.687440   -1.933726    1.120759
H      -1.907229   -0.548834    1.882222
