20

C      -0.124262    1.504382    0.137360
C       0.004218   -0.022296    0.106656
C       0.730574   -0.534851   -1.128908
N       2.183581   -0.202954   -1.389208
C       3.086956   -0.304037   -0.188878
C       3.564078   -1.722081   -0.598544
C       2.491972   -1.657026   -1.708712
C       1.064413   -2.033303   -1.271162
O       0.487387   -3.057625   -1.052942
H       0.857905    1.986863    0.143053
H      -0.664831    1.870662   -0.741813
H      -0.667461    1.833520    1.028247
H       0.495549   -0.379790    1.018401
H      -0.989088   -0.486523    0.105886
H       0.172379   -0.215698   -2.021985
H       3.857103    0.471454   -0.203613
H       2.574508   -0.255359    0.776196
H       4.583467   -1.751956   -0.987023
H       3.443534   -2.521138    0.135651
H       2.772093   -1.922709   -2.731804
