13

C      -0.041818    1.559117    0.050119
C       0.010221    0.021196   -0.011541
C       0.687027   -0.477032   -1.201384
C       1.248801   -0.869970   -2.188453
C       1.928687   -1.350286   -3.383996
F       1.964685   -2.690776   -3.424803
F       1.314292   -0.932696   -4.501379
F       3.196595   -0.914359   -3.438350
H       0.965648    1.982678    0.056882
H      -0.575661    1.965300   -0.812699
H      -0.558224    1.878981    0.959045
H       0.520742   -0.371765    0.876308
H      -1.006904   -0.388828    0.014550
