14

O      -0.186339   -0.756183   -0.176937
C      -0.116892    0.447265   -0.181737
C       0.701022    1.230135    0.860981
C       1.985765    1.619551    0.294416
C       3.041717    1.911423   -0.198207
C      -0.833597    1.244856   -1.236074
C      -1.849460    2.246375   -0.847524
O      -0.572496    2.642953   -1.322658
H       0.154850    2.123737    1.183002
H       0.839215    0.571368    1.723401
H       3.976036    2.181915   -0.624055
H      -0.962267    0.719551   -2.180683
H      -2.686241    2.424589   -1.520297
H      -2.045323    2.441800    0.205854
