13

N       0.000529   -1.127097    0.113105
C       0.035656    0.025596    0.033680
C       0.048956    1.461086   -0.097812
C      -0.948581    2.161290   -1.022315
C      -0.201513    3.412687   -1.433946
C       1.036658    3.459559   -0.936234
C       1.287817    2.280405   -0.057860
O       0.395111    2.202238    1.073479
H      -1.198218    1.528331   -1.881877
H      -1.885529    2.381987   -0.498888
H      -0.662288    4.177787   -2.047474
H       1.766144    4.241900   -1.098620
H       2.273356    1.857358    0.106949
