18

C      -1.246522   -0.403669   -0.361091
N       0.181065   -0.129999   -0.144507
C       0.720282   -0.618293    1.054719
C       1.120105   -1.859951    1.493222
O       1.054055   -3.013458    0.783493
N       1.632623   -1.814275    2.751136
C       1.545917   -0.541391    3.105444
N       1.014346    0.228602    2.128769
C       0.748903    1.650779    2.173729
H      -1.832721    0.089569    0.419966
H      -1.548196    0.016981   -1.325340
H      -1.493704   -1.474675   -0.348763
H       0.719887   -0.459896   -0.936736
H       1.430726   -3.696874    1.350857
H       1.853619   -0.133670    4.056836
H       1.456838    2.131622    2.852105
H       0.865304    2.061789    1.169533
H      -0.270147    1.860937    2.517686
