14

C       0.125118   -1.190037   -0.035682
C       0.020279    0.009450   -0.000539
C      -0.040999    1.414023    0.041274
C      -1.128683    2.209584    0.058677
C      -0.701079    3.659030    0.104827
O       0.718005    3.623246    0.111838
C       1.194079    2.287604    0.074956
C      -2.483980    1.806843    0.038511
N      -3.605796    1.517118    0.023109
H       0.194725   -2.249849   -0.066600
H      -1.065932    4.219888   -0.768051
H      -1.076140    4.166347    1.005705
H       1.810945    2.073438    0.960026
H       1.821917    2.126431   -0.813615
