19

C       0.018013    1.403858   -0.165710
O       0.020227    0.071431    0.303190
C      -1.197351   -0.581361    0.141658
C      -1.583562   -1.320301   -1.172103
C      -0.389182   -2.023059   -1.797078
O       0.493674   -2.539732   -0.810341
C      -0.082468   -2.835257    0.455714
C      -1.327891   -2.002727    0.715943
O      -2.282332   -2.298934   -0.347534
H       0.998635    1.827326    0.061144
H      -0.147910    1.459268   -1.251605
H      -0.756644    2.005893    0.333775
H      -2.038361    0.042708    0.473945
H      -2.237908   -0.846984   -1.909206
H      -0.766992   -2.829402   -2.445258
H       0.199316   -1.332126   -2.412654
H      -0.363968   -3.897965    0.518715
H       0.689636   -2.631124    1.205782
H      -1.742778   -2.155053    1.715682
