22

C       0.093610    1.574502   -0.016869
C       0.030938    0.031267    0.040948
C       0.865359   -0.492227    1.231979
C      -1.436971   -0.486727    0.090870
C      -2.251220   -0.052760    1.313832
C      -3.671554   -0.606372    1.272799
O      -4.342110   -0.154191    2.438092
C       0.625893   -0.496660   -1.200567
N       1.086388   -0.913877   -2.175505
H       1.124513    1.913523   -0.148084
H      -0.501187    1.962163   -0.848521
H      -0.288825    2.002226    0.913178
H       0.487216   -0.075739    2.168855
H       0.822553   -1.583122    1.293870
H       1.912847   -0.197679    1.127487
H      -1.944398   -0.151917   -0.822035
H      -1.410386   -1.582073    0.041127
H      -1.782617   -0.396888    2.241910
H      -2.317080    1.038585    1.376836
H      -4.179833   -0.259985    0.357944
H      -3.640799   -1.707505    1.229805
H      -5.239961   -0.498071    2.422814
