23

C      -0.213488    1.593311   -0.056119
C       0.058999    0.089160   -0.011561
C       0.842802   -0.506318   -1.211756
C       2.186129    0.217857   -1.448079
C       3.030221   -0.328670   -0.258210
C       2.004804   -1.258805    0.426055
O       1.267685   -1.775923   -0.692545
C       0.914238   -0.464942    1.194052
C       1.410263    0.540923    2.233695
H       0.698152    2.195942   -0.021955
H      -0.749242    1.859711   -0.974190
H      -0.840034    1.903139    0.786339
H      -0.911183   -0.417867    0.004876
H       0.241230   -0.662338   -2.108661
H       2.610284   -0.085492   -2.408056
H       2.098521    1.306068   -1.454582
H       3.884673   -0.910381   -0.611774
H       3.412969    0.454905    0.398627
H       2.439548   -2.085872    0.989638
H       0.307231   -1.207449    1.722095
H       1.988458    1.359770    1.797112
H       0.571949    0.988269    2.777204
H       2.049192    0.045455    2.973379
