16

C      -0.078849    1.514369    0.003430
C      -0.029937   -0.005572    0.144747
C       0.790574   -0.477358    1.321058
O       1.363250    0.265866    2.084760
C       0.928617   -2.007029    1.561370
O       1.818240   -2.241171    2.617669
C      -0.396077   -2.592649    1.800344
C      -1.483668   -3.063758    1.999596
H       0.924479    1.929786   -0.119736
H      -0.679984    1.797701   -0.864433
H      -0.516897    1.975096    0.892313
H      -1.033036   -0.436370    0.250769
H       0.386823   -0.478337   -0.755815
H       1.337971   -2.441377    0.634056
H       1.992386   -1.360858    2.993059
H      -2.438443   -3.492708    2.181051
