14

C      -0.029076    1.487015    0.002755
C       0.015716   -0.011428   -0.005539
N      -0.026404   -0.635878   -1.185584
C       0.017113   -1.974893   -1.125699
N       0.097120   -2.697080    0.000780
C       0.132254   -1.961513    1.110612
N       0.095852   -0.634350    1.181521
C      -0.025441   -2.688468   -2.366134
C      -0.061137   -3.288100   -3.407294
H       0.864635    1.882702    0.495293
H      -0.093421    1.873558   -1.013934
H      -0.889294    1.829784    0.586200
H       0.197249   -2.503764    2.051805
H      -0.092701   -3.818056   -4.327757
