22

C      -0.033171    0.970607   -0.888659
C      -0.233380    0.419829    0.535080
C      -1.486226   -0.312024    0.695474
C      -2.528129   -0.906767    0.806982
C      -3.784499   -1.643645    0.931910
C      -3.826638   -2.922737    0.093262
C      -2.835396   -3.992835    0.495928
C      -5.134198   -3.299746   -0.502206
N      -4.042077   -2.791028   -1.356628
H       0.917636    1.507225   -0.960648
H      -0.028177    0.159139   -1.621342
H      -0.839000    1.659972   -1.155228
H       0.607507   -0.236166    0.794710
H      -0.200719    1.247293    1.255709
H      -3.955956   -1.901519    1.986327
H      -4.622083   -0.995800    0.640440
H      -3.036233   -4.350003    1.512473
H      -2.893580   -4.840601   -0.190355
H      -1.814510   -3.599061    0.469481
H      -5.381105   -4.347321   -0.653634
H      -5.992583   -2.659641   -0.311820
H      -4.213239   -1.817715   -1.599052
