20

C      -0.102628    1.675200    0.347446
C      -0.102235    0.198029   -0.068054
C       0.807516   -0.634270    0.859580
C      -1.492554   -0.378510   -0.119532
N      -2.478326    0.068178    0.659827
N      -3.538877   -0.689736    0.348721
C      -3.268629   -1.621769   -0.608226
C      -1.939692   -1.451330   -0.939647
N      -1.187198   -2.107761   -1.933130
H       0.918058    2.071476    0.353233
H      -0.703736    2.277885   -0.338956
H      -0.526016    1.795135    1.348417
H       0.308273    0.128196   -1.085290
H       0.445487   -0.585613    1.891768
H       0.828967   -1.690354    0.568275
H       1.836403   -0.258997    0.838840
H      -4.417651   -0.511816    0.801774
H      -4.019421   -2.305784   -0.970821
H      -1.626479   -2.963222   -2.248297
H      -0.248198   -2.325424   -1.623047
