19

C      -0.016387    1.598322   -0.272357
C      -0.008363    0.109398   -0.002798
C       1.160417   -0.696998   -0.387759
O       0.948844   -0.318277    0.974221
C      -1.372466   -0.549569    0.063011
C      -1.526121   -1.932989    0.795551
C      -2.574477   -1.275391    1.704854
O      -1.935938   -0.183707    2.374137
C      -2.416555    0.028431    1.044581
H       1.003931    1.983566   -0.336504
H      -0.534817    1.823742   -1.211051
H      -0.530750    2.129287    0.535134
H       1.042763   -1.759475   -0.600009
H       2.006190   -0.219747   -0.881726
H      -1.796931   -0.596417   -0.946409
H      -1.931309   -2.713012    0.147423
H      -0.638165   -2.292002    1.317624
H      -3.434770   -1.719687    2.191102
H      -3.120839    0.838660    0.892605
