15

O      -0.045413    1.445776    0.020991
C      -0.032696    0.055198   -0.200821
C      -1.434356   -0.527985    0.005738
C      -1.624274   -2.059713    0.197582
O      -2.057932   -1.844001    1.572403
C      -1.883456   -0.490565    1.464284
O      -1.986020    0.339689    2.310994
C      -2.684501   -2.690597   -0.674308
O      -3.827546   -2.849460   -0.346345
H      -0.376478    1.599779    0.915328
H       0.296746   -0.098162   -1.233278
H       0.682610   -0.465236    0.456887
H      -2.147621   -0.059692   -0.676845
H      -0.696862   -2.642240    0.170334
H      -2.308602   -2.975121   -1.683714
