21

C       0.033262    0.941262    0.240156
O      -0.446238   -0.170274   -0.501249
C       0.457790   -0.633738   -1.440379
C       1.633182   -1.483435   -0.989374
O       1.781416   -1.651377    0.375888
C       2.304817   -2.921752    0.732777
C       0.455702   -2.130684   -1.697563
O      -0.348001   -2.952294   -0.927488
C      -1.715528   -2.917199   -1.306709
H       0.930908    0.677258    0.809351
H       0.258701    1.793628   -0.418544
H      -0.765372    1.229099    0.927861
H       0.624301    0.032972   -2.289975
H       2.568047   -1.405951   -1.549756
H       3.300555   -3.081764    0.292172
H       2.395873   -2.930118    1.821466
H       1.634957   -3.727374    0.413873
H       0.594400   -2.456872   -2.731195
H      -2.242456   -3.612590   -0.649159
H      -2.131765   -1.911285   -1.186957
H      -1.849593   -3.243779   -2.349113
