15

N      -0.070507    1.256084    0.205382
C      -0.034019    0.014211   -0.028628
O       1.124591   -0.688529   -0.364198
C       0.759193   -2.032412   -0.617258
C       0.929189   -3.233040    0.389353
C      -0.591281   -3.581680    0.137754
C      -0.692082   -2.140245   -0.303555
C      -1.149707   -0.951097    0.090985
H       0.860354    1.666164    0.121364
H       1.082284   -2.313484   -1.625111
H       1.668252   -3.992802    0.127612
H       1.088891   -2.873943    1.406911
H      -0.708846   -4.306414   -0.672641
H      -1.197279   -3.888730    0.990549
H      -2.079317   -0.684864    0.571843
