20

C      -0.000709    1.595675    0.027338
C      -0.008324    0.062601    0.075948
C      -1.384524   -0.525541    0.042145
C      -2.675008   -0.105691    0.770374
C      -2.627353   -0.170002   -0.736801
N      -3.120918   -1.614550   -0.760998
C      -3.144653   -1.578507    0.749947
C      -1.904309   -2.000833    0.044331
C      -1.223398   -3.319173   -0.098423
H       1.023397    1.979008    0.044380
H      -0.480611    1.965947   -0.884505
H      -0.531480    2.022755    0.884327
H       0.572867   -0.329271   -0.770075
H       0.510584   -0.275462    0.983466
H      -2.847364    0.723705    1.441682
H      -2.831681    0.564479   -1.506589
H      -3.870631   -2.138838    1.328628
H      -1.970568   -4.117000   -0.158313
H      -0.617944   -3.357209   -1.011029
H      -0.568478   -3.525301    0.755506
