15

C      -0.068959    1.521811    0.099000
C       0.016386    0.040353   -0.017566
C       0.085550   -0.775812   -1.116997
O       0.098537   -0.308842   -2.404821
C       0.153934   -2.142889   -0.692730
C       0.123932   -2.104422    0.682267
O       0.157025   -3.069696    1.637599
N       0.045739   -0.812265    1.091382
H       0.798041    1.959981    0.612362
H      -0.109313    1.953869   -0.903594
H      -0.967290    1.852571    0.637966
H       0.036353   -1.060063   -3.000169
H       0.221890   -3.022581   -1.314894
H       0.216644   -3.924186    1.200708
H       0.004154   -0.527485    2.053938
