21

C       0.981372    1.372510    0.254845
C       0.886431    0.247194   -0.742994
C      -0.231886    0.458442    0.242516
C      -0.495179   -0.457753    1.386113
C      -0.078595   -1.724152    1.446776
C      -0.305107   -2.603636    2.645688
O      -0.790178   -1.907993    3.777113
C      -1.819708   -0.994635    3.441414
C      -1.291432    0.119933    2.537089
H       1.683955    1.254399    1.072656
H       0.861746    2.392641   -0.093183
H       0.699006    0.491722   -1.782617
H       1.544314   -0.602247   -0.600319
H      -1.130597    0.921431   -0.162066
H       0.447878   -2.179207    0.612134
H      -0.991529   -3.429578    2.377152
H       0.636448   -3.071616    2.959334
H      -2.648237   -1.520741    2.937997
H      -2.198332   -0.597464    4.387523
H      -0.667416    0.815274    3.114596
H      -2.132432    0.712635    2.152362
