13

N      -0.088734    1.330084   -0.482789
C       0.004524    0.126444   -0.069132
C       1.250297   -0.539463    0.324041
N       1.436286   -1.641190    0.958533
N       0.449390   -2.388851    1.501171
N      -0.845939   -2.091561    1.895885
N      -1.572419   -1.302657    1.267726
C      -1.231926   -0.715380    0.004428
N      -2.001233   -0.852397   -0.990041
H       0.826861    1.789457   -0.460081
H       2.171317   -0.056074    0.000999
H       0.826860   -3.078337    2.134850
H      -2.815389   -1.415918   -0.725505
