22

C       0.367439    1.888483    0.326649
C      -0.084267    0.425446    0.317136
C       0.889792   -0.476038    1.086796
N       0.556343   -1.899156    1.079170
C       1.353027   -2.771303    0.381760
O       1.285744   -3.980311    0.386335
C      -0.413692   -2.360277    2.035905
C      -1.897410   -2.147768    1.802519
C      -1.304244   -3.528446    1.733116
H       1.353864    2.005057   -0.136054
H      -0.334284    2.521650   -0.223624
H       0.433970    2.277629    1.348807
H      -1.083595    0.345239    0.755625
H      -0.161805    0.060328   -0.714060
H       1.892779   -0.364902    0.658990
H       0.959041   -0.138927    2.130210
H       2.095161   -2.220961   -0.232642
H      -0.076880   -2.260289    3.067151
H      -2.508133   -1.871890    2.655195
H      -2.196280   -1.693482    0.865651
H      -1.201132   -3.992583    0.762589
H      -1.494196   -4.224141    2.542238
