14

C      -0.028056    1.583588    0.117308
C      -0.022473    0.093597    0.019651
C       0.034805   -0.710200   -1.109949
N       0.015723   -2.006313   -0.712368
N      -0.051132   -2.118509    0.611303
C      -0.074392   -0.857862    1.059369
N       0.104454   -0.392673   -2.497516
O       0.144448   -1.341322   -3.282205
O       0.119829    0.792937   -2.809380
H       0.871641    2.014017   -0.331839
H      -0.879353    2.013178   -0.418608
H      -0.079988    1.895628    1.163030
H       0.046521   -2.810565   -1.319437
H      -0.128016   -0.668766    2.121541
