10

N      -0.088411    1.318076    0.298395
C      -0.000250    0.112668   -0.044231
N      -1.124928   -0.702186   -0.089073
N      -1.155323   -1.989609   -0.435460
N      -0.092374   -2.585524   -0.765722
C       1.143560   -1.885212   -0.769683
O       2.173994   -2.391560   -1.070463
O       1.142702   -0.537113   -0.401640
H       0.819323    1.778412    0.280790
H      -2.016287   -0.299948    0.161232
