21

C      -0.067051    1.446897   -0.172280
C       0.013738   -0.066487    0.093792
C       0.658042   -0.368465    1.454903
C      -1.351685   -0.682291   -0.017087
O      -2.349786   -0.267721    0.946477
C      -2.839290   -1.638562    1.055701
C      -1.914518   -2.106535   -0.054195
C      -2.081921   -1.152952   -1.230519
O      -3.308495   -0.612695   -1.606882
H       0.924933    1.904809   -0.110783
H      -0.478323    1.653879   -1.165054
H      -0.710540    1.932188    0.568403
H       0.625487   -0.525659   -0.694707
H       1.653779    0.080504    1.522308
H       0.044876    0.036586    2.265452
H       0.760270   -1.446656    1.614140
H      -2.600729   -2.046568    2.042830
H      -3.917347   -1.705128    0.871314
H      -1.422599   -3.068212   -0.121368
H      -1.462524   -1.398530   -2.089120
H      -3.547129    0.010289   -0.906547
