18

C      -0.688299    1.307775    0.132676
C      -0.053048   -0.053210   -0.133464
C       0.878301   -0.200230   -1.384966
C       2.024520   -0.751372   -0.491139
C       3.349488   -0.016476   -0.521156
O       3.547730    0.982847   -1.164287
C       1.136386   -0.451676    0.721118
N       1.287609   -0.456864    1.975850
O       2.587591   -0.870255    2.328823
H       0.065159    2.101298    0.110493
H      -1.443672    1.533550   -0.627053
H      -1.171505    1.327536    1.113842
H      -0.822130   -0.834485   -0.111029
H       0.523983   -0.872152   -2.167249
H       1.157487    0.758505   -1.826504
H       2.221251   -1.826968   -0.579406
H       4.138295   -0.461994    0.117582
H       2.568840   -0.813620    3.290366
