15

C      -0.226467    1.285389   -0.075342
O      -0.083707   -0.130423   -0.133315
C       0.755163   -0.579076   -1.133754
C       0.853705   -2.102707   -1.038153
C      -0.148453   -2.581567   -2.068661
O      -0.617710   -3.671349   -2.223470
C      -0.464426   -1.357770   -2.962316
O      -1.124265   -1.326304   -3.954579
O       0.189927   -0.287014   -2.443967
H       0.750579    1.771969    0.052064
H      -0.705745    1.674013   -0.979499
H      -0.851553    1.499516    0.792516
H       1.716880   -0.052080   -1.121975
H       1.851231   -2.452404   -1.324664
H       0.629296   -2.463988   -0.034686
