18

C      -0.071532    1.453728   -0.308053
C      -0.018253    0.030635   -0.005204
C       0.032422   -1.146924    0.238785
C       0.059996   -2.576062    0.537547
C      -1.305647   -3.226280    0.377064
O      -1.690144   -3.637021   -0.935108
C      -1.513381   -4.649884    0.064047
C      -0.418351   -5.663733   -0.152765
H       0.663396    1.725518   -1.073875
H      -1.059869    1.742431   -0.682597
H       0.136018    2.060681    0.580271
H       0.782596   -3.079833   -0.112200
H       0.400814   -2.732512    1.570842
H      -2.096126   -2.713579    0.928200
H      -2.455601   -5.083260    0.408080
H       0.516418   -5.199362   -0.472317
H      -0.232486   -6.225852    0.769047
H      -0.718929   -6.379915   -0.924633
