23

C       0.114620    1.552122   -0.088368
C       0.112265    0.025761    0.043191
C       0.679970   -0.508835    1.372918
C      -0.158451   -0.100359    2.587287
O       0.496964   -0.610252    3.744141
C       0.728282   -2.044570    1.335144
O      -0.260159   -2.682873    1.047180
C       2.049439   -2.698975    1.689192
C       2.024182   -4.222924    1.626836
H       1.118974    1.964078    0.061513
H      -0.219684    1.850943   -1.086800
H      -0.551989    2.032071    0.634477
H      -0.900376   -0.371197   -0.084278
H       0.704206   -0.400941   -0.775865
H       1.694247   -0.119052    1.524472
H      -0.249589    0.993449    2.641042
H      -1.166086   -0.527055    2.477052
H      -0.074428   -0.468946    4.504239
H       2.820555   -2.280636    1.026076
H       2.308166   -2.334535    2.692799
H       2.997561   -4.639477    1.901066
H       1.270316   -4.626275    2.307729
H       1.770186   -4.569804    0.621570
