20

N      -0.297797   -1.182682   -0.254421
C      -0.171759   -0.038886   -0.143920
C      -0.027553    1.415508   -0.010297
C      -0.739155    1.933804    1.262702
C      -0.230858    1.383643    2.599852
C       1.194746    1.819633    2.986656
C       2.304697    1.196132    2.173587
C       2.414794    1.199009    0.845425
C       1.458457    1.842510   -0.131254
H      -0.554327    1.854889   -0.867400
H      -0.649707    3.027978    1.257425
H      -1.806853    1.708120    1.168107
H      -0.918783    1.727605    3.380948
H      -0.288804    0.289043    2.593395
H       1.258714    2.916858    2.919474
H       1.354839    1.579563    4.042427
H       3.088771    0.700262    2.741035
H       3.276179    0.706911    0.401934
H       1.790751    1.630344   -1.151375
H       1.481223    2.936152   -0.023557
