21

C      -0.087826    1.631831   -0.079852
C      -0.022797    0.109060   -0.001553
O       0.585564   -0.331437   -1.202755
C       0.735119   -0.453938    1.240863
C       2.232861   -0.073069    1.230350
C       0.074212    0.018958    2.550933
O       0.755467   -0.576528    3.647288
C       0.681149   -1.980609    1.216260
O       0.391412   -2.654166    0.252022
H       0.912804    2.072863   -0.087139
H      -0.580994    1.908969   -1.015043
H      -0.657959    2.063771    0.746819
H      -1.055160   -0.276491    0.055849
H       0.522767   -1.297203   -1.185148
H       2.357193    0.991355    1.451541
H       2.786635   -0.629821    1.990174
H       2.657842   -0.276595    0.245629
H       0.133666    1.114717    2.605536
H      -0.992984   -0.256790    2.550620
H       0.323696   -0.298507    4.459978
H       0.952715   -2.463498    2.174736
