16

O      -0.558954    0.746630    0.873070
C       0.088274    0.939044   -0.122511
C       1.337843    1.801234   -0.157703
C       1.300781    2.895709   -1.252242
C       2.564947    3.798390   -1.174370
C       2.521577    4.921672   -2.098540
C       2.457831    5.844762   -2.864100
C       1.171243    2.297759   -2.585519
N       1.079167    1.796696   -3.622738
H      -0.193211    0.480255   -1.094903
H       1.462377    2.263109    0.825055
H       2.197897    1.143662   -0.343742
H       0.423763    3.533221   -1.090502
H       2.649029    4.163294   -0.144049
H       3.452776    3.183632   -1.364386
H       2.412908    6.658019   -3.545899
