17

N      -0.237715   -1.187451   -0.329227
C      -0.119776   -0.048476   -0.167645
C       0.010525    1.391785    0.043842
C      -0.266322    2.005437    1.449779
C       0.098926    1.019569    2.565314
C       1.584121    0.669182    2.271149
C       2.045248    1.782808    1.338414
C       1.020181    2.830438    1.191999
N       1.398678    1.978798   -0.000790
H      -0.567843    1.900460   -0.732447
H      -1.220337    2.517313    1.566342
H       0.000072    1.513753    3.537341
H      -0.550583    0.139723    2.567880
H       2.192139    0.670176    3.180371
H       1.694710   -0.316696    1.812216
H       3.097979    2.037670    1.286794
H       1.152296    3.904971    1.207307
