22

C       0.277085    1.370903   -0.206220
C       0.016645   -0.122016    0.022694
N      -1.393290   -0.474409    0.094508
C      -2.117121   -0.715082    1.340529
C      -2.382879    0.564337    2.144332
C      -3.414580   -1.412754    0.850217
C      -3.565898   -0.974409   -0.614081
C      -2.145660   -0.605981   -1.041363
O      -1.735256   -0.439311   -2.173820
H       1.353586    1.558257   -0.275656
H      -0.187227    1.687572   -1.143142
H      -0.123063    1.983859    0.606759
H       0.450282   -0.688567   -0.807917
H       0.495810   -0.463715    0.946568
H      -1.529726   -1.398751    1.967431
H      -2.986000    1.273095    1.567201
H      -2.920941    0.325202    3.067708
H      -1.448546    1.061237    2.421846
H      -3.287555   -2.497803    0.903314
H      -4.271677   -1.150888    1.474723
H      -3.972149   -1.743959   -1.272778
H      -4.199256   -0.087213   -0.725842
