20

C      -0.080951    1.545603    0.093678
C       0.020740    0.007674   -0.010918
C       0.702531   -0.465428   -1.303309
C      -0.038205   -0.082089   -2.578907
O       0.622259   -0.723719   -3.660015
C       0.794600   -0.491474    1.215554
C      -0.031782   -0.865364    2.433231
O       2.001776   -0.565818    1.215893
H       0.912502    1.997572    0.011798
H      -0.712844    1.955038   -0.698675
H      -0.514300    1.855818    1.050174
H      -0.996804   -0.403252    0.038727
H       1.724088   -0.075750   -1.338218
H       0.792158   -1.557778   -1.288652
H      -1.092269   -0.402847   -2.511422
H      -0.039143    1.010312   -2.713171
H       0.199015   -0.447146   -4.477871
H      -0.771552   -0.091357    2.663730
H      -0.592941   -1.783521    2.220106
H       0.618161   -1.032726    3.292925
