19

C       1.300047    1.616482    2.363453
C       0.437519    0.569235    1.706801
O       0.664710    0.285042    0.316884
C       0.864261   -0.775056    1.271262
C       2.303026   -1.251203    1.338703
O       2.652827   -1.945441    0.152308
C      -0.183100   -1.885818    1.181971
C      -0.456648   -2.526606    2.525539
O      -1.523887   -2.506729    3.083035
H       2.350569    1.526577    2.083134
H       0.957302    2.613772    2.069016
H       1.218259    1.545092    3.453249
H      -0.623368    0.657077    1.952636
H       2.978255   -0.406622    1.518742
H       2.434389   -1.964539    2.159681
H       2.522646   -1.327204   -0.576536
H      -1.117694   -1.480356    0.789516
H       0.197781   -2.651030    0.493367
H       0.418189   -3.033140    2.995079
