13

C      -0.068855    1.418818    0.068117
N       0.019476   -0.021907   -0.022768
C       0.133967   -0.772934   -1.153890
C       0.121748   -2.090311   -0.740530
O       0.223770   -3.169931   -1.564666
C      -0.007483   -2.032160    0.662026
N      -0.071468   -0.768103    1.086876
H       0.729620    1.887355   -0.514362
H      -1.035657    1.783261   -0.296271
H       0.042286    1.686411    1.118501
H       0.216408   -0.335083   -2.134664
H       0.191387   -3.968048   -1.029269
H      -0.049332   -2.846531    1.371372
