12

N       0.051852    1.297056    0.156801
C      -0.056986   -0.057957    0.055537
N      -1.164150   -0.762555    0.023008
C      -0.645860   -2.032517    0.010225
C       0.697636   -2.052841    0.023528
O       1.135407   -0.749048    0.054699
N       1.203157   -3.315441   -0.017810
C       0.105580   -4.025426   -0.049200
O      -1.081715   -3.313204   -0.036880
H       0.902421    1.695010   -0.211828
H      -0.790346    1.793969   -0.090317
H       0.009904   -5.097368   -0.080049
