23

C       0.103897    1.555253   -0.099236
C       0.165152    0.031348    0.014030
C       0.639455   -0.474608    1.398829
C      -0.271834   -0.050046    2.464341
C      -1.040779    0.280282    3.328363
C       0.797285   -1.992703    1.398816
C       2.062199   -2.637540    0.882699
C       1.710200   -2.729521    2.349758
C       2.544306   -2.031648    3.402776
H       1.090417    2.004558    0.062260
H      -0.241469    1.860099   -1.091818
H      -0.580114    1.976994    0.642956
H      -0.821480   -0.399216   -0.194755
H       0.851506   -0.375657   -0.737394
H       1.620571   -0.020503    1.593116
H      -1.708918    0.576286    4.098638
H      -0.130839   -2.505640    1.159003
H       1.985447   -3.520799    0.257967
H       2.882896   -1.977730    0.614181
H       1.327538   -3.694248    2.673808
H       2.983456   -1.101410    3.030526
H       1.945291   -1.784277    4.285420
H       3.371693   -2.673067    3.725541
