16

C      -0.213366    1.548854    0.160449
C      -0.011160    0.051476    0.041857
C       1.353228   -0.500256   -0.330119
C       0.814061   -0.682888    1.066845
O       1.313935    0.083602    2.119718
C      -1.207860   -0.680007   -0.505306
F      -1.525064   -0.249141   -1.738701
F      -1.001073   -2.007673   -0.591546
F      -2.293939   -0.498323    0.264696
H       0.642086    2.002583    0.661125
H      -0.332619    2.002434   -0.827537
H      -1.106916    1.770441    0.750930
H       1.407897   -1.367031   -0.978015
H       2.138440    0.235181   -0.467562
H       0.483314   -1.683072    1.340343
H       2.182682   -0.261128    2.350752
