14

O      -0.053632   -0.033801   -0.146538
C       0.019419    1.136174    0.124182
C       1.309089    1.950646    0.056171
C       1.304606    2.883116   -1.148991
C       1.439072    4.165697   -0.800791
C       1.516471    4.295169    0.682937
O       0.327120    3.820835    1.360729
C       1.434940    2.928106    1.229653
H      -0.865617    1.728388    0.434773
H       2.143395    1.242111    0.016820
H       1.165340    2.506421   -2.155550
H       1.473890    5.008532   -1.479348
H       2.025262    5.116589    1.176510
H       1.901326    2.616746    2.159836
