18

O       0.164236    0.213332   -1.026201
C       0.054092    1.190203   -0.347242
C      -1.008605    1.751095    0.599066
N      -0.176177    2.975426    0.743977
C       0.116125    3.399035    2.114213
C       1.030642    2.445940    2.853629
C       1.997900    1.799509    2.203601
C       2.248969    2.041734    0.737370
C       0.959860    2.393480   -0.038981
H      -2.005300    1.925070    0.178995
H      -1.101855    1.139409    1.509117
H       0.565414    4.402491    2.077744
H      -0.836182    3.517054    2.641762
H       0.880756    2.302142    3.920157
H       2.655172    1.108082    2.723009
H       2.965190    2.867653    0.628351
H       2.716949    1.173651    0.259924
H       1.207995    2.988519   -0.926393
