21

C       0.122995    1.446408   -0.367742
C       0.001526    0.038554    0.228233
C      -1.409187   -0.508959    0.205007
C      -1.994949   -1.050220   -1.102245
C      -1.729337   -1.985347    0.049043
O      -0.679920   -2.902194   -0.054836
C      -2.887344   -2.322327    0.991233
C      -3.262606   -0.978562    1.576708
C      -2.446256   -0.007092    1.161139
H       1.158432    1.799642   -0.333446
H      -0.204427    1.460915   -1.412608
H      -0.491078    2.169646    0.179816
H       0.650619   -0.655955   -0.315735
H       0.364862    0.045368    1.263838
H      -3.015466   -0.792638   -1.367984
H      -1.304202   -1.132481   -1.936932
H      -0.906259   -3.540334   -0.739600
H      -3.727544   -2.805570    0.475669
H      -2.544009   -3.023255    1.764119
H      -4.104112   -0.848524    2.247522
H      -2.511622    1.035064    1.454637
