13

O      -0.052246   -0.070754   -0.002092
C      -0.041962    1.129575    0.007424
N       1.161808    1.883021    0.000049
C       2.375711    1.225314   -0.018688
C       3.525848    1.932124   -0.025796
N       3.544449    3.311053   -0.014957
C       2.415385    3.938341    0.002582
C       1.088725    3.304520    0.012208
O       0.030126    3.899174    0.028636
H      -0.921685    1.783396    0.022451
H       2.306507    0.145528   -0.026554
H       4.485990    1.432789   -0.040456
H       2.408422    5.025883    0.011371
