16

O       0.003843   -0.036417    0.181428
C      -0.017763    1.160037    0.048645
C      -1.284303    2.070090   -0.034346
C      -0.721309    3.461210    0.020832
C       0.083261    4.004999    1.156359
C       0.793395    3.369132   -0.034001
C       0.643364    4.242052   -1.287443
O      -0.793974    4.375427   -1.082171
N       1.100283    1.988296   -0.025898
H      -1.795422    1.893208   -0.984693
H      -1.968717    1.799563    0.772709
H       0.124113    5.081215    1.288581
H       0.109292    3.418832    2.068129
H       1.149897    5.213196   -1.298186
H       0.859793    3.691316   -2.208716
H       2.005998    1.599460    0.189235
