18

C      -0.111365    1.508491    0.018360
C      -0.039855   -0.018928    0.054425
C       0.755173   -0.538621    1.257326
O       0.058105   -0.165003    2.458637
C       0.831257    0.122633    3.547112
C      -0.041651    0.454626    4.728698
O       2.032117    0.102162    3.532094
C       0.896863   -2.003388    1.219148
N       1.000101   -3.152388    1.163041
H       0.887911    1.952271   -0.044817
H      -0.681677    1.842613   -0.852415
H      -0.600947    1.900257    0.913621
H      -1.044007   -0.454010    0.088376
H       0.443036   -0.403317   -0.850301
H       1.758178   -0.101620    1.287904
H      -0.765250    1.229409    4.462966
H      -0.608189   -0.433578    5.024153
H       0.582563    0.785309    5.557555
