23

C       0.784768   -0.716939   -1.347187
C       0.043688   -0.134491   -0.155732
C      -1.425252   -0.538941   -0.014178
C      -2.439198    0.345980   -0.729730
C      -2.290060    0.559518   -2.220141
C      -3.770793    0.497434   -0.120072
O      -2.797566    1.538014   -0.004190
C       0.843963    0.020590    1.119546
C       0.440187    1.242027    0.331440
H       1.828221   -0.386171   -1.356777
H       0.785552   -1.813293   -1.308953
H       0.339368   -0.421542   -2.302448
H      -1.549904   -1.572722   -0.365449
H      -1.700270   -0.535746    1.045429
H      -2.273454   -0.396098   -2.755086
H      -3.119161    1.158875   -2.604441
H      -1.359979    1.090235   -2.442802
H      -4.629963    0.729978   -0.748609
H      -4.008312   -0.027234    0.805153
H       0.346621   -0.163739    2.066219
H       1.886878   -0.278860    1.102498
H       1.211117    1.774729   -0.215961
H      -0.340719    1.874849    0.736026
