19

O       0.021656    1.419721    0.083992
C       0.034477    0.013178   -0.003317
C       1.028634   -0.606129    0.940466
C       1.128900   -1.929525    1.025465
C       0.223590   -2.766979    0.166748
C      -0.684758   -1.889596   -0.689939
C      -1.381265   -0.635342   -0.057446
C      -1.528411   -0.081441   -1.502754
C      -0.084412   -0.647992   -1.428007
H       0.917188    1.734804   -0.076976
H       1.628400    0.066531    1.547284
H       1.829457   -2.416614    1.697475
H       0.814073   -3.434143   -0.478170
H      -0.383962   -3.435428    0.794066
H      -1.353969   -2.488057   -1.314525
H      -2.119581   -0.626316    0.746421
H      -2.220819   -0.621367   -2.154139
H      -1.625921    0.997879   -1.601599
H       0.679505   -0.654807   -2.208977
