18

C      -0.221524    1.668573    0.303063
C      -0.047244    0.178415    0.070623
O       0.976569   -0.115052   -0.924237
C       1.812267   -0.781973    0.050321
C       0.765657   -0.606339    1.157352
O       1.259869    0.111992    2.254886
C      -1.387469   -0.486232   -0.248636
N      -1.422083   -1.128491   -1.439804
O      -2.310837   -0.434002    0.545460
H       0.690805    2.100060    0.718532
H      -0.453996    2.163867   -0.644660
H      -1.050479    1.836725    0.994990
H       2.050226   -1.809423   -0.243993
H       2.736227   -0.227014    0.245575
H       0.268863   -1.530724    1.471286
H       0.560043    0.176542    2.913351
H      -0.604571   -1.116025   -2.027185
H      -2.269988   -1.582942   -1.734096
