20

C      -0.466312    1.206629    0.010771
N       0.070781   -0.137364    0.168571
C       1.462696   -0.366955   -0.193628
C       1.030506   -0.416862    1.233619
C       1.505049    0.624216    2.223137
N       0.498040    0.857853    3.257052
C       0.526474   -0.050187    4.399789
C       0.990830    1.357867    4.534914
H       0.283334    2.011158    0.075394
H      -0.943022    1.276831   -0.972345
H      -1.221717    1.383808    0.780945
H       1.677226   -1.278248   -0.746414
H       2.058114    0.495400   -0.496421
H       0.879043   -1.397292    1.685599
H       2.465765    0.282841    2.654002
H       1.703618    1.578530    1.725408
H      -0.440750   -0.355585    4.787836
H       1.290482   -0.826512    4.417649
H       2.063309    1.517450    4.640473
H       0.369421    2.102289    5.024229
