19

C      -0.053611    1.646264    0.108088
C       1.444068    1.325447    0.005603
C       1.731508    0.699375    1.405422
C       0.584943   -0.335788    1.351462
O      -0.496631   -0.306277    2.262981
C      -1.625481   -0.831007    1.524007
C      -1.310386   -0.738164   -0.017394
C      -0.065587    0.105877    0.040715
O       1.088111    0.167964   -0.849773
H      -0.436127    2.143908    1.001480
H      -0.451235    2.082003   -0.809443
H       2.181608    1.986747   -0.447663
H       2.714065    0.229578    1.473040
H       1.628611    1.430922    2.210451
H       0.983570   -1.356557    1.255573
H      -1.808198   -1.871959    1.818285
H      -2.501327   -0.238477    1.802831
H      -1.094177   -1.727122   -0.432083
H      -2.134184   -0.298067   -0.582929
