17

O      -0.072417   -0.025693   -0.119476
C      -0.011511    1.183847   -0.089329
N       1.142044    1.911467   -0.043211
C       1.159522    3.356265    0.031657
C       1.832301    3.792616    1.332525
N       3.112785    3.115736    1.465906
C       3.444523    1.893789    0.949219
O       4.508079    1.355074    1.180821
C       2.432781    1.242792    0.006813
H      -0.906723    1.837379   -0.096056
H       1.706718    3.772304   -0.825665
H       0.133243    3.730779   -0.008066
H       1.998748    4.875267    1.321354
H       1.170140    3.564787    2.180379
H       3.791070    3.481200    2.118906
H       2.271603    0.211288    0.323927
H       2.900564    1.204449   -0.986863
