17

C       0.834726   -0.788736    0.546612
C       0.353426    0.287257    0.311692
C      -0.268338    1.574957   -0.011359
C      -0.895513    2.286546    1.215615
C       0.222228    3.204260    1.695012
O       1.242265    2.533055    2.464054
C       2.229682    2.724088    1.422474
C       1.171099    3.339581    0.481498
O       0.672010    2.516668   -0.553393
H       1.267524   -1.733649    0.765606
H      -1.012953    1.409257   -0.796917
H      -1.752251    2.885600    0.891998
H      -1.218554    1.590027    1.990408
H      -0.135035    4.110878    2.193357
H       3.018651    3.418377    1.737833
H       2.669301    1.781869    1.083466
H       1.390652    4.319760    0.056457
