15

O      -0.069157    1.384795   -0.056994
C      -0.052860   -0.006392    0.029562
C      -0.475768   -0.745264    1.282199
C      -1.355178   -0.741968    0.013679
C      -2.593603    0.054581    0.346134
O      -3.609071    0.031176   -0.298400
C      -2.374371    0.788547    1.666773
C      -1.200875    0.064275    2.323601
O      -0.920815    0.076228    3.495214
H       0.722723    1.723921    0.375384
H       0.750260   -0.486262   -0.528571
H       0.098611   -1.601615    1.613863
H      -1.473463   -1.600636   -0.635488
H      -2.093854    1.826648    1.459840
H      -3.266864    0.789648    2.295826
