16

C       0.039644    1.530141   -0.099875
C      -0.024328    0.016061    0.113374
N      -1.374621   -0.516042    0.032173
C      -2.140335   -0.942787    1.065313
N      -3.341691   -1.328808    0.673812
C      -3.345631   -1.136588   -0.676054
O      -4.429227   -1.432882   -1.427699
C      -2.147639   -0.632630   -1.116163
H       1.074478    1.877152   -0.022146
H      -0.339041    1.804787   -1.088171
H      -0.559390    2.052869    0.651130
H       0.599353   -0.499881   -0.625159
H       0.365701   -0.246426    1.101240
H      -1.773767   -0.956446    2.081065
H      -5.093222   -1.770012   -0.814103
H      -1.781853   -0.366664   -2.091945
