25

C      -0.104819    1.426994   -0.104082
O      -0.190002    0.025201   -0.163760
C       0.710518   -0.541275   -1.091395
C       0.548488   -2.054973   -1.070974
C       1.505515   -2.760022   -2.041584
C       1.332723   -4.271617   -2.103339
C       1.645736   -5.022378   -0.821801
C       0.230440   -4.813684   -2.983402
C       1.675035   -4.954888   -3.405924
H       0.898245    1.764701    0.203654
H      -0.337325    1.894790   -1.074650
H      -0.833361    1.770100    0.634906
H       0.515662   -0.145881   -2.104532
H       1.748487   -0.261724   -0.835989
H       0.712900   -2.401874   -0.044882
H      -0.489274   -2.302090   -1.323847
H       1.361051   -2.346856   -3.048566
H       2.544007   -2.527922   -1.764134
H       0.976124   -4.732072   -0.005086
H       1.539433   -6.102385   -0.964099
H       2.674440   -4.830667   -0.492941
H      -0.296836   -5.704549   -2.658447
H      -0.391051   -4.107186   -3.524385
H       2.026703   -4.344797   -4.231761
H       2.125148   -5.941415   -3.363624
