17

O       0.267017    0.039168   -0.208820
C       0.466385    1.111369    0.275283
O       0.677488    2.211865   -0.483134
C       0.918135    3.457078    0.181734
C       2.363318    3.868439    0.041371
C       2.881300    4.304447   -1.323930
C       2.701568    5.328831   -0.260822
C       3.325162    3.152765    0.914366
O       3.014432    2.319375    1.730902
H       0.497989    1.322802    1.358037
H       0.260406    4.192994   -0.289251
H       0.651284    3.375943    1.241573
H       3.889387    4.006946   -1.592151
H       2.167394    4.255938   -2.137733
H       1.862509    6.012596   -0.324337
H       3.582613    5.744200    0.216626
H       4.389641    3.448609    0.768064
