19

N      -0.009851   -1.197351    0.157203
C      -0.011322   -0.040260    0.140114
C      -0.054745    1.430587    0.077756
C      -0.134507    2.060854    1.507893
C       1.404898    2.249105    1.488690
C       1.381261    2.039646   -0.047911
N      -1.022022    1.957365   -0.871818
C      -1.258068    1.252441   -2.131932
C      -2.297280    1.266963   -1.065827
H      -0.671936    3.008560    1.435107
H      -0.572295    1.449851    2.298405
H       1.791336    3.202209    1.852195
H       1.925487    1.440548    2.006906
H       2.151667    1.411763   -0.497497
H       1.307335    2.980872   -0.596458
H      -1.349373    1.891655   -3.004661
H      -0.745320    0.308070   -2.299699
H      -2.464730    0.332104   -0.535840
H      -3.163309    1.916949   -1.143984
