22

C      -0.324099    1.502144   -0.019702
C       0.130100    0.047012   -0.006378
C      -0.926373   -0.875914    0.579957
C       0.824171   -0.427631   -1.308981
C       2.130691   -0.349204   -0.488697
O       1.396173   -0.073733    0.725747
C       2.987592   -1.585941   -0.380524
C       3.681595   -1.898796    0.889474
N       2.540980   -2.722654    0.434839
H       0.457906    2.151949   -0.423120
H      -1.222657    1.622406   -0.634507
H      -0.555159    1.837896    0.996215
H      -1.855786   -0.810211    0.003973
H      -0.592561   -1.917343    0.568801
H      -1.146599   -0.595355    1.615187
H       0.555624   -1.441853   -1.611388
H       0.747228    0.242943   -2.166242
H       2.763104    0.506823   -0.765969
H       3.461935   -1.868545   -1.319682
H       4.646801   -2.396668    0.876818
H       3.515374   -1.226619    1.726391
H       1.724946   -2.415886    0.963022
