21

O       0.026151   -0.096962   -0.026672
C       0.024014    1.111995    0.022752
C      -1.276970    1.911579    0.045778
C      -1.541985    2.806573   -1.187224
C      -0.462120    3.867010   -1.468798
C       0.778681    3.290729   -2.129986
C       2.171184    3.703871   -1.720585
C       1.669218    2.319517   -1.388167
C       1.326229    1.911202    0.038810
H      -2.092046    1.192209    0.161383
H      -1.261559    2.549892    0.940533
H      -1.668813    2.172955   -2.073881
H      -2.505052    3.303895   -1.025116
H      -0.880566    4.641509   -2.122513
H      -0.199240    4.378219   -0.534248
H       0.642692    3.071385   -3.186208
H       2.932684    3.809529   -2.485756
H       2.264877    4.411772   -0.902199
H       2.070085    1.502543   -1.980463
H       1.218648    2.796025    0.674102
H       2.116712    1.281845    0.456481
