21

C       0.188157    1.840705    0.013849
C       0.006929    0.318160    0.106394
C       0.598004   -0.440980   -1.105065
C      -0.116011   -0.156939   -2.422800
O       0.446266   -1.022560   -3.395846
C       0.685277   -0.218217    1.358365
O       1.794124    0.133227    1.705408
C      -0.056136   -1.250800    2.193546
O       0.725192   -1.715452    3.250592
H       1.251192    2.091202   -0.025799
H      -0.302820    2.245992   -0.874233
H      -0.240246    2.340214    0.888180
H      -1.062888    0.077023    0.172598
H       1.660024   -0.192512   -1.204856
H       0.542762   -1.522479   -0.931881
H      -1.198026   -0.336586   -2.304318
H       0.011309    0.897126   -2.710503
H       0.055344   -0.813180   -4.249057
H      -0.987163   -0.775827    2.552118
H      -0.372674   -2.075686    1.533720
H       1.546717   -1.199922    3.196735
