16

O      -0.884366    1.113748    0.125630
C       0.255725    0.739332    0.047733
C       1.452339    1.676135    0.051705
C       1.309068    2.854028    1.021257
C       2.639489    3.608915    1.057257
O       3.710890    2.711316    1.330242
C       3.762672    1.680895    0.386913
O       2.593560    0.894543    0.369349
H       0.530688   -0.333909   -0.045713
H       1.551531    2.069101   -0.980097
H       0.486508    3.501678    0.706079
H       1.077897    2.469440    2.019548
H       2.814988    4.116565    0.093360
H       2.657061    4.363120    1.847312
H       3.934304    2.099954   -0.624049
H       4.584735    1.021372    0.670016
