18

C      -0.731202    1.216178   -0.048402
C       0.173233   -0.003127   -0.007936
C       1.545424    0.057866   -0.746179
C       2.170284   -0.651852    0.449979
C       3.018043   -1.843049    0.499208
O       3.503318   -0.542558    0.872595
C       0.932059   -0.359161    1.334127
C       1.113038    0.758411    2.247217
N       1.243968    1.655226    2.965255
H      -0.207012    2.112054    0.297083
H      -1.076897    1.396990   -1.071500
H      -1.613512    1.079778    0.585180
H      -0.378194   -0.895271   -0.317904
H       1.620938   -0.426465   -1.721809
H       1.914204    1.085582   -0.826634
H       2.913598   -2.552876    1.318638
H       3.433241   -2.247476   -0.422711
H       0.533724   -1.211834    1.890077
