20

C      -0.103463    1.689636    0.028647
C       0.042854    0.170349   -0.052623
C      -1.346738   -0.521609   -0.123051
C      -2.171479   -0.282185    1.058638
N      -2.838041   -0.084886    1.981571
C       0.928061   -0.296782   -1.234855
C       1.738798   -1.454929   -0.635558
C       1.904715   -0.984499    0.810317
O       0.695585   -0.303025    1.133296
H       0.881993    2.152012    0.130806
H      -0.579422    2.087327   -0.874208
H      -0.707672    1.974021    0.894012
H      -1.893092   -0.168397   -1.005039
H      -1.207553   -1.601867   -0.235205
H       0.340380   -0.582419   -2.111012
H       1.594544    0.517346   -1.536827
H       1.171527   -2.391023   -0.670135
H       2.691444   -1.621369   -1.143736
H       2.039104   -1.798452    1.528660
H       2.763733   -0.301969    0.904139
