25

C       0.133206    1.523801    0.106601
C      -0.024573   -0.003514    0.042739
C      -1.497706   -0.447116    0.049094
C      -2.260268   -0.117509    1.326892
O      -3.552713   -0.699448    1.217304
C       0.696079   -0.567162   -1.182367
C       2.244627   -0.437831   -1.281337
C       2.287872   -1.862972   -1.894170
C       0.863301   -2.107935   -1.329394
H       1.188351    1.811521    0.060261
H      -0.379622    2.003269   -0.736052
H      -0.279944    1.943171    1.028710
H       0.462491   -0.433339    0.932419
H      -2.026026    0.004746   -0.800690
H      -1.554342   -1.532761   -0.092579
H      -1.715802   -0.521393    2.197292
H      -2.332912    0.971929    1.465552
H      -4.055888   -0.461497    2.001322
H       0.234942   -0.159133   -2.091636
H       2.656603    0.385140   -1.870668
H       2.702054   -0.413656   -0.285907
H       2.290053   -1.833011   -2.987651
H       3.086433   -2.532831   -1.566605
H       0.897729   -2.595524   -0.348852
H       0.149079   -2.645960   -1.957307
