15

C      -0.051741    1.554021    0.028200
C      -0.029639    0.051926    0.026261
C       1.099700   -0.791701   -0.678042
O       2.041367   -0.541952    0.416166
C       0.765125   -0.798890    1.088166
C       0.465906   -1.964275    0.111940
O      -0.931650   -2.049584   -0.153120
C      -1.310656   -0.724615   -0.219630
O      -2.425696   -0.357992   -0.429155
H       0.952003    1.941737    0.220097
H      -0.402040    1.937729   -0.934400
H      -0.730670    1.930660    0.798744
H       1.464004   -0.732254   -1.703385
H       0.729096   -0.748043    2.176144
H       0.938179   -2.937969    0.197453
