16

N      -0.038124    1.302138   -0.305043
C       0.010507    0.084997    0.041540
O       1.172997   -0.507000    0.436267
C       1.171518   -1.889101    0.818002
C      -0.186913   -2.548206    0.730926
C      -1.100569   -2.232926   -0.481748
O      -2.276187   -2.597087    0.330007
C      -1.436261   -1.764695    1.210510
C      -1.215763   -0.770283    0.034905
H       0.890949    1.724568   -0.237567
H       1.888237   -2.406541    0.168650
H       1.556209   -1.943455    1.843737
H      -0.165539   -3.598957    1.025889
H      -1.053671   -2.595066   -1.508555
H      -1.793354   -1.563343    2.220271
H      -2.094926   -0.220343   -0.291673
