15

O      -0.157421    1.339904   -0.007386
N       0.024143   -0.065804   -0.003889
C      -1.090204   -0.653845    0.097670
C      -2.551192   -0.237816    0.029496
O      -2.883490    0.775553   -0.883992
C      -2.851695   -1.690895   -0.449722
C      -1.426007   -2.134017   -0.011196
O      -0.740074   -2.909251   -0.959697
H       0.733985    1.666362   -0.169913
H      -2.967176   -0.039607    1.029676
H      -2.226414    1.473562   -0.772316
H      -3.698391   -2.205790    0.003733
H      -2.926870   -1.712526   -1.538144
H      -1.432049   -2.616382    0.978719
H       0.202449   -2.838018   -0.773572
