17

C      -0.053433    1.334717    0.045952
O      -0.027838   -0.089400   -0.063226
C       0.638108   -0.553109   -1.128595
N       1.254320    0.125065   -2.056977
C       1.769804   -0.843446   -2.910040
C       1.451051   -2.097548   -2.480405
C       1.765565   -3.455163   -3.012937
O       2.141805   -3.313796   -4.371641
N       0.712058   -1.900594   -1.315770
H       0.961207    1.734725    0.130312
H      -0.532585    1.781383   -0.830078
H      -0.626309    1.552770    0.947931
H       2.331902   -0.577237   -3.789974
H       2.576715   -3.923848   -2.428605
H       0.884021   -4.113450   -2.905402
H       2.581593   -4.124268   -4.643246
H       0.289333   -2.598298   -0.727547
