14

C      -0.081532    1.326155   -0.198120
C       0.148545   -0.159834   -0.124187
O       0.989721   -0.718932    0.524331
O      -0.760705   -0.810538   -0.911355
C      -0.626567   -2.222107   -1.003389
C       0.016687   -2.583233   -2.334592
F       1.221772   -2.017925   -2.463328
F       0.164625   -3.912997   -2.415732
F      -0.730913   -2.187000   -3.370918
H       0.590669    1.832018    0.493349
H       0.102989    1.675232   -1.218374
H      -1.121827    1.560079    0.042569
H      -0.004900   -2.606201   -0.193210
H      -1.626183   -2.659458   -0.967095
