19

C      -0.265882   -3.872874   -0.624170
C      -0.167420   -2.691007   -0.394837
C      -0.057009   -1.359751   -0.136618
C       0.043814   -0.175603    0.097388
C       0.170394    1.240927    0.385185
C      -0.329980    1.661345    1.789883
C       0.262057    3.073059    1.992301
C       1.525742    3.144913    1.082341
C       1.625610    1.772626    0.381422
H      -0.351911   -4.911472   -0.825561
H      -0.403134    1.802667   -0.366732
H      -1.419088    1.630993    1.871781
H       0.073264    0.959752    2.527876
H      -0.463561    3.836360    1.695095
H       0.497383    3.258626    3.043398
H       1.415556    3.943319    0.342147
H       2.432679    3.368504    1.649873
H       2.249883    1.083530    0.960126
H       2.047425    1.828317   -0.624936
