21

C      -0.054161    1.572819   -0.021361
C       0.010313    0.036968   -0.016174
C       0.679876   -0.511265   -1.286640
C       0.984799   -2.006287   -1.153799
C       1.956228   -2.266156    0.004022
C       1.580962   -1.483868    1.251972
C       0.697768   -0.471554    1.225317
C       2.217774   -1.875819    2.464031
C       2.784405   -2.246614    3.461310
H       0.951932    2.006131   -0.028287
H      -0.585108    1.936220   -0.907378
H      -0.576172    1.952225    0.863231
H      -1.029460   -0.329690    0.006723
H       0.039356   -0.320167   -2.154930
H       1.616518    0.036392   -1.460246
H       0.049322   -2.551312   -0.972823
H       1.402867   -2.400868   -2.085925
H       1.989805   -3.333621    0.248505
H       2.980849   -1.997132   -0.288181
H       0.457608    0.034084    2.157798
H       3.274750   -2.559190    4.349395
