20

O      -0.060511    1.445859    0.236552
C       0.041022    0.052619   -0.011053
C      -1.358686   -0.540637    0.083457
C      -1.385960   -2.052477   -0.159552
C      -2.788050   -2.644766   -0.081353
C      -2.908867   -4.198210   -0.050964
C      -3.586204   -4.011009    1.329231
O      -4.093719   -4.723663    2.151959
N      -3.401557   -2.649907    1.258205
H       0.821021    1.826681    0.187359
H       0.461724   -0.146763   -1.010641
H       0.701972   -0.437528    0.722646
H      -1.760560   -0.311296    1.078074
H      -2.002331   -0.027836   -0.642238
H      -0.974613   -2.277647   -1.152823
H      -0.747078   -2.562542    0.573122
H      -3.437130   -2.180560   -0.834911
H      -3.557855   -4.640237   -0.808625
H      -1.959203   -4.736255   -0.019208
H      -3.756284   -1.905714    1.840726
