15

N       0.561613    1.216616   -0.797220
C       0.114728    0.045637   -0.221233
N      -0.878167   -0.675268   -0.730616
N      -1.000587   -1.672959    0.196938
C      -2.027408   -2.684246    0.003421
C      -1.995875   -3.720668    1.025887
C      -1.992506   -4.586130    1.857826
C      -0.098804   -1.500043    1.176513
N       0.633108   -0.422230    0.951233
H       1.514718    1.438037   -0.550198
H       0.383295    1.280292   -1.788534
H      -3.006778   -2.190120   -0.005021
H      -1.887998   -3.125738   -0.990533
H      -1.991157   -5.353827    2.592276
H      -0.011345   -2.171937    2.015307
