14

O      -0.168412    0.048681    0.346795
C      -0.020100    1.229308    0.153072
C       1.275962    1.895558   -0.091481
N       2.452732    1.237088   -0.123509
N       3.268671    2.266314   -0.369225
C       4.624935    2.810812   -0.601639
C       3.897159    4.216991   -0.732847
C       2.620830    3.425431   -0.471470
N       1.326454    3.262808   -0.302931
H      -0.867583    1.945546    0.140067
H       5.291995    2.699122    0.254765
H       5.096550    2.432919   -1.510262
H       4.170191    4.942364    0.035221
H       3.974830    4.677338   -1.719123
