14

C      -0.022000    1.460393    0.044880
N       0.043855    0.018303   -0.068075
C      -0.027732   -0.763567   -1.173051
C       0.090010   -2.050937   -0.700546
C       0.083959   -3.349660   -1.438089
N       0.225955   -1.984655    0.656462
N       0.197950   -0.739026    1.035043
H       0.792982    1.930763   -0.512527
H      -0.978257    1.835615   -0.330523
H       0.073618    1.704194    1.102884
H      -0.151358   -0.356488   -2.162844
H       1.017159   -3.898116   -1.275049
H      -0.733407   -3.992048   -1.095305
H      -0.034939   -3.190397   -2.512805
