16

N      -0.052525   -1.166452   -0.046097
C      -0.033950   -0.008916   -0.008238
C      -0.002686    1.405561    0.040566
C      -1.015373    2.357153    0.684590
C      -0.302826    3.300965    1.653876
C       1.212413    3.079809    1.370997
C       1.210580    2.375933    0.022435
O       0.528262    3.244880   -0.944223
C      -0.664388    2.495216   -0.774819
H      -1.998064    1.960159    0.911676
H      -0.593602    4.338179    1.466686
H      -0.562205    3.065225    2.688619
H       1.775765    4.015411    1.329622
H       1.673250    2.435076    2.127565
H       2.161718    2.014251   -0.367052
H      -1.361785    2.437262   -1.601748
