18

C      -0.443033    1.484819   -0.113954
N      -0.197694    0.065665    0.019898
C      -1.213228   -0.758468    0.715067
C      -0.095651   -1.504628    1.477211
C       0.181482   -2.926060    1.027258
O      -0.440469   -3.484489    0.159291
C       0.859439   -0.386029    0.943315
C       2.132811   -0.769924    0.224417
O       2.739756   -1.795235    0.400565
H       0.422607    1.976562   -0.569386
H      -1.301862    1.647050   -0.772792
H      -0.651643    1.981145    0.853381
H      -1.859695   -0.173300    1.385096
H      -1.823397   -1.373486    0.049298
H      -0.177712   -1.507506    2.567347
H       0.988403   -3.442096    1.582985
H       1.109393    0.351962    1.728173
H       2.470443   -0.014043   -0.520260
