21

C      -0.035241    1.530016   -0.135413
C      -0.018917    0.071351    0.338690
C      -1.370260   -0.590266    0.164275
C      -1.785477   -1.219021   -1.121343
C      -1.552991   -2.116075    0.086649
C      -0.387527   -3.026112    0.089732
O       0.624221   -2.850723   -0.568394
C      -0.472423   -4.262842    0.976974
O       0.689674   -5.028373    0.894456
H       0.943174    1.998082    0.008299
H      -0.286851    1.596000   -1.198965
H      -0.772635    2.122882    0.417363
H       0.738839   -0.493438   -0.209927
H       0.267381    0.034210    1.397607
H      -2.169768   -0.112241    0.726765
H      -2.806092   -1.110858   -1.470289
H      -1.033091   -1.302999   -1.898725
H      -2.428518   -2.505500    0.596587
H      -0.665393   -3.929788    2.011195
H      -1.361390   -4.841328    0.671303
H       1.253232   -4.550871    0.262905
