23

C       0.167495    1.479590   -0.296193
C       0.334110   -0.029605   -0.106705
C       0.280306   -0.457622    1.367403
C       0.437995   -1.951624    1.528412
O       1.750526   -2.501901    1.357993
C       1.128295   -2.621380    2.641133
C       1.758576   -1.897819    3.802247
O       2.652297   -2.787359    4.435287
C       3.302105   -2.211847    5.542446
H       0.955806    2.033441    0.225778
H       0.213027    1.755050   -1.354266
H      -0.794833    1.826200    0.097326
H      -0.447868   -0.560686   -0.665208
H       1.290351   -0.357559   -0.530808
H       1.060485    0.067251    1.928132
H      -0.682720   -0.158158    1.804104
H      -0.339614   -2.532721    1.024902
H       0.820743   -3.637573    2.893851
H       2.286065   -0.998894    3.450858
H       0.974422   -1.573075    4.510414
H       3.962647   -2.972422    5.965386
H       3.906189   -1.337063    5.253731
H       2.585992   -1.891727    6.316781
