18

C      -0.605198    1.350456   -0.065423
C       0.078447   -0.008410   -0.017685
C       1.403425   -0.196547   -0.829633
C       2.125603   -0.642348    0.467069
O       2.753026    0.455490    1.157835
C       1.612573    0.613678    2.043862
C       0.807333   -0.454640    1.289864
C       2.931249   -1.850675    0.449661
N       3.545262   -2.830057    0.424642
H       0.090569    2.166078    0.155888
H      -1.016337    1.535268   -1.063361
H      -1.432406    1.406812    0.650559
H      -0.641949   -0.782034   -0.298290
H       1.353692   -0.961874   -1.606549
H       1.846103    0.712668   -1.242486
H       1.873452    0.332709    3.070796
H       1.227011    1.637943    2.038196
H       0.345191   -1.244897    1.878377
