17

O       0.000036    1.300808    0.090115
C       0.009635   -0.041777    0.016322
N      -0.003956   -0.767607   -1.066738
C       0.017221   -2.086219   -0.614288
C       0.047986   -2.112518    0.751968
N       0.035695   -0.777797    1.153008
C       0.003408   -3.209585   -1.572511
C      -0.272668   -4.621282   -1.122044
C      -1.297476   -3.892601   -1.950891
H      -0.023382    1.617334   -0.821639
H       0.091666   -2.915542    1.467053
H       0.055930   -0.418661    2.091580
H       0.712553   -3.095575   -2.387463
H       0.295428   -5.421507   -1.582919
H      -0.501331   -4.789456   -0.075400
H      -2.198479   -3.552044   -1.453372
H      -1.435498   -4.188143   -2.985104
