18

C      -0.122525    1.529108    0.016917
C      -0.097352   -0.000717   -0.002176
C       0.775201   -0.573404    1.119362
N       0.792336   -2.021015    1.142283
N      -0.315706   -2.745058    1.525280
C       0.048509   -3.983114    1.410319
N       1.339980   -4.099416    0.968462
C       1.863426   -2.813660    0.778069
O       2.969776   -2.491860    0.395788
H       0.882578    1.946020   -0.110569
H      -0.749821    1.922049   -0.788277
H      -0.521402    1.908725    0.964201
H      -1.112196   -0.398917    0.106545
H       0.283707   -0.361108   -0.964884
H       1.818614   -0.268793    0.996520
H       0.425868   -0.215636    2.094544
H      -0.586186   -4.824945    1.637296
H       1.865910   -4.938646    0.799040
