16

C       0.098900    1.528618    0.008121
C      -0.054768    0.009534    0.002851
C      -1.467884   -0.505911    0.012982
N      -2.420258    0.363926    0.024304
O      -3.734812   -0.107735    0.033771
C      -3.983948   -1.421665    0.031093
C      -3.042051   -2.383406    0.019543
C      -1.651848   -1.990548    0.009043
O      -0.691357   -2.745071   -0.001747
H       1.159469    1.794453    0.000082
H      -0.375988    1.980901   -0.866473
H      -0.360708    1.973216    0.894740
H       0.440093   -0.438262   -0.868377
H       0.455264   -0.445874    0.861275
H      -5.054242   -1.600946    0.039582
H      -3.313928   -3.430894    0.018072
