15

O      -0.327294    0.376270   -0.644690
C      -0.079313    1.410896   -0.123083
O      -0.965702    2.302611    0.457320
C       0.105997    3.221874    0.836535
C       1.147226    2.298316    0.182232
O       1.392811    3.254035   -0.870311
C       0.473155    4.188130   -0.268395
C      -0.365534    5.123878   -1.062017
C       0.772179    5.648486   -0.196175
H       0.035137    3.528114    1.876768
H       2.048425    1.864226    0.612995
H      -0.210310    5.119274   -2.135185
H      -1.390197    5.290640   -0.748699
H       0.531924    6.179576    0.719130
H       1.670068    5.987163   -0.700901
