17

O       0.147931    1.399925   -0.219045
C       0.007716    0.021730   -0.032450
C       0.261368   -0.600535    1.413289
C       0.442305    0.375547    2.469959
C       0.567387    1.256133    3.282143
C      -1.111562   -1.294614    1.304205
C      -2.198194   -0.256590    1.161841
C      -1.377571   -0.631002   -0.040680
O      -1.929566   -1.223743   -1.161347
H      -0.036376    1.834459    0.623295
H       0.647743   -0.474302   -0.767718
H       1.094694   -1.307116    1.397153
H       0.695716    1.997268    4.032229
H      -1.313091   -2.309509    1.620125
H      -3.203263   -0.665136    1.139281
H      -2.111917    0.708770    1.653824
H      -2.461546   -0.564490   -1.620534
