20

O       0.140166    1.339655    0.402985
C       0.070273   -0.025093    0.101139
C       1.017068   -0.557717   -0.954394
C       1.271519   -0.816979    0.520372
C      -1.311681   -0.628368    0.204078
C      -2.230846   -0.193181    1.410878
C      -3.250860    0.328420    0.393988
N      -2.553775    1.358844   -0.421055
C      -2.396435   -0.084943   -0.749749
H      -0.672633    1.739074    0.046550
H       0.706832   -1.388712   -1.580516
H       1.648662    0.173999   -1.444549
H       2.070401   -0.256395    0.992423
H       1.132240   -1.822587    0.903479
H      -1.251162   -1.717172    0.131943
H      -2.595833   -1.047269    1.984342
H      -1.811262    0.557589    2.082336
H      -4.329739    0.354846    0.481736
H      -3.230393    1.750701   -1.073478
H      -2.661234   -0.448138   -1.735373
