19

C      -0.191914    1.503593    0.038755
C      -0.058092   -0.014260    0.069656
C       0.516764   -0.563439   -1.243717
C       0.821445   -2.058838   -1.325987
O       0.841472   -2.628594   -2.391755
C       1.163491   -2.825727   -0.040760
O       0.204830   -2.596007    0.979158
C       0.501824   -1.518708    1.828610
O       0.835766   -0.347124    1.140490
H       0.788237    1.969050   -0.105221
H      -0.849095    1.819594   -0.776862
H      -0.607703    1.867763    0.981858
H      -1.040245   -0.465804    0.261383
H      -0.126136   -0.316019   -2.093468
H       1.477695   -0.057088   -1.419664
H       1.147723   -3.890987   -0.280783
H       2.177192   -2.550714    0.288182
H      -0.400544   -1.393861    2.444378
H       1.370156   -1.734350    2.467990
