12

O       0.004661    0.017180    0.161923
C      -0.013881    1.194940    0.024588
N      -1.200024    2.027444   -0.072131
C      -0.833169    3.333389    0.517527
C      -0.833621    3.162622   -0.946714
C       0.740378    3.187021   -0.950041
C       0.740830    3.357775    0.514201
N       1.145477    2.063790   -0.077101
H      -1.514487    3.816793    1.202385
H      -1.515390    3.475499   -1.724018
H       1.408830    3.520829   -1.730199
H       1.409734    3.862095    1.196207
