17

N      -0.080680    1.433906   -0.153523
C       0.058376   -0.002755   -0.037029
C       0.852666   -0.509885    1.208860
C       1.053676   -2.065676    1.177616
N       2.459554   -2.155919    0.772428
C       3.009172   -0.905312    0.936706
N       2.218167    0.072545    1.169882
C       0.156689   -0.078922    2.428870
N      -0.429887    0.248064    3.369587
H      -0.645141    1.793835    0.610989
H       0.836242    1.862903   -0.063958
H      -0.935753   -0.464219   -0.027986
H       0.591686   -0.385850   -0.915311
H       0.879788   -2.522544    2.157535
H       0.392752   -2.541993    0.447205
H       2.997109   -2.974804    1.013164
H       4.081507   -0.779530    0.816880
