18

N       0.015883   -1.210775    0.340412
C       0.003572   -0.063440    0.202485
C       0.023831    1.397635    0.002546
N      -0.684618    2.065041    1.102154
C       0.345355    2.263370    2.140587
C       1.667536    2.576408    1.402443
C       1.478007    1.943778    0.019488
C       2.553891    1.333931   -0.792974
N       2.017413    2.664103   -1.141728
H      -0.476090    1.605219   -0.949244
H      -0.994321    2.971229    0.763219
H       0.032988    3.048363    2.831836
H       0.433689    1.333675    2.713614
H       1.810681    3.653985    1.279666
H       2.542342    2.180807    1.924878
H       3.574711    1.334971   -0.420991
H       2.304039    0.483082   -1.422284
H       1.393986    2.586015   -1.942673
