18

C      -0.332112    0.751634    0.536767
O       0.190768   -0.520107    0.199336
C       0.563683   -0.642932   -1.153449
C       1.395739   -1.920609   -1.294697
O       0.616303   -3.084174   -1.057155
C       0.515292   -3.512685    0.223098
N      -0.277382   -4.451725    0.502138
C      -0.660115   -0.721601   -2.075189
O      -0.619052   -0.457077   -3.246877
H       0.411573    1.544981    0.371221
H      -1.234238    0.996256   -0.041900
H      -0.592791    0.719878    1.596424
H       1.184625    0.205473   -1.484231
H       1.764668   -1.997278   -2.320075
H       2.249025   -1.870597   -0.606745
H       1.178829   -2.979087    0.913827
H      -0.212941   -4.675871    1.492868
H      -1.586899   -1.067991   -1.568731
