17

C       0.019225    1.468894   -0.104560
C      -0.023023    0.018819   -0.007925
C      -0.062425   -1.183714    0.062577
C      -0.062852   -2.596619    0.198840
O      -0.274766   -3.434491   -0.967077
C      -1.137686   -3.618630    0.161956
C      -0.407474   -4.535824    1.139108
C       0.777540   -3.492333    1.149510
O       2.023874   -3.893690    0.668836
H       0.763819    1.887771    0.581072
H       0.284722    1.787627   -1.118497
H      -0.950753    1.914453    0.142290
H      -2.199828   -3.482571   -0.004036
H      -0.896637   -4.623526    2.112201
H      -0.161258   -5.529067    0.756122
H       0.931463   -3.042009    2.132086
H       1.883440   -4.157468   -0.250071
