20

C      -0.082809    1.527966    0.077154
N       0.117062    0.083395    0.121591
C       1.384354   -0.552108   -0.158545
C       2.591153    0.257716    0.357650
C       1.944299    0.194294    1.752936
C       2.599283    0.121205    3.058105
O       1.841792    1.276350    2.670714
C       0.757394   -0.605852    1.228187
C       0.019672   -1.682417    1.967873
H       0.736785    2.130402    0.487312
H      -0.246624    1.822276   -0.964427
H      -0.988540    1.767121    0.642193
H       1.424255   -1.327057   -0.916680
H       3.531211   -0.297556    0.306351
H       2.739749    1.251636   -0.072626
H       2.161207   -0.474843    3.858129
H       3.676405    0.269826    3.129050
H      -0.589240   -1.255626    2.773661
H      -0.650488   -2.213048    1.287271
H       0.710770   -2.403802    2.416538
