14

C      -0.016738    1.515111   -0.016824
C       0.011968    0.024709    0.022881
C       0.532587   -0.986690   -1.014037
C       0.845370   -1.975971    0.134446
C       0.345152   -1.005193    1.141788
N      -0.600012   -2.022098    0.555706
C      -0.906890   -1.021475   -0.558538
H       0.968667    1.943340    0.200967
H      -0.318754    1.868168   -1.008999
H      -0.728362    1.922613    0.710942
H       0.968440   -0.803556   -1.986075
H       1.501320   -2.833867    0.223430
H       0.510513   -0.919160    2.209887
H      -1.847441   -0.959382   -1.092552
