19

O       0.527332    0.679946   -0.930875
C      -0.016520    0.219111    0.296652
C      -1.445192   -0.264014    0.165162
N      -1.836441   -1.052889   -1.014521
C      -2.429977    0.285786   -0.811781
C      -3.825091    0.293344   -0.184534
C      -3.641080   -0.262180    1.229501
N      -3.217282   -1.673311    1.293544
C      -2.206369   -0.606853    1.435172
H       0.107216    1.519944   -1.141581
H       0.626264   -0.613183    0.607871
H       0.049036    0.989582    1.080835
H      -1.084143   -0.950896   -1.696625
H      -2.171267    1.067395   -1.521790
H      -4.198948    1.321870   -0.128963
H      -4.538254   -0.297193   -0.767388
H      -4.257853    0.130429    2.032724
H      -3.437166   -2.040337    2.217374
H      -1.708808   -0.469399    2.390435
