20

C      -0.146555    1.100208   -0.152373
C       0.559808   -0.153433    0.339969
O       1.291257   -0.798851   -0.727073
C       0.597094   -1.643589   -1.506160
O      -0.581316   -1.887421   -1.365929
C       1.452863   -2.257728   -2.577168
C       2.798010   -1.638831   -2.878698
C       1.226152   -3.730354   -2.746842
N       0.694733   -2.787856   -3.726255
H       0.564218    1.791098   -0.614661
H      -0.919176    0.844292   -0.880877
H      -0.623643    1.610223    0.690518
H       1.321596    0.083051    1.086264
H      -0.151718   -0.868166    0.759183
H       3.454702   -1.677894   -2.005835
H       3.269264   -2.178404   -3.703288
H       2.692222   -0.590687   -3.174312
H       2.058357   -4.339917   -3.088772
H       0.534804   -4.215557   -2.064544
H      -0.296382   -2.648232   -3.531471
