17

C       0.378382    1.378491   -0.387482
C      -0.305318    0.149489    0.242433
C       0.367185   -0.329314    1.440552
C       0.940004   -0.715170    2.435761
C       1.583291   -1.147592    3.551098
C       2.156496   -1.542548    4.542829
C       2.828703   -1.966511    5.736065
C       2.899093   -3.390887    6.126566
O       4.036566   -2.734964    5.586054
H       1.407575    1.146318   -0.672881
H      -0.166288    1.695223   -1.281529
H       0.402373    2.213373    0.317539
H      -1.347379    0.392536    0.488565
H      -0.351924   -0.664438   -0.492930
H       2.879809   -1.224326    6.532419
H       2.954577   -3.644376    7.184611
H       2.433933   -4.135068    5.483177
