21

C       0.059477    1.452016   -0.238720
C       0.041745   -0.025392    0.155045
O       0.783572   -0.269638    1.347307
C      -1.362858   -0.550994    0.288665
C      -2.386018   -0.305026    1.413716
C      -3.013053   -1.713845    1.084332
C      -4.476619   -1.776893    0.672874
C      -1.957658   -1.858181   -0.027433
O      -2.118028   -0.740279   -0.918040
H       1.089516    1.803972   -0.340554
H      -0.464156    1.602831   -1.186883
H      -0.441415    2.063964    0.522186
H       0.540719   -0.612936   -0.623904
H       0.508058    0.381748    2.001256
H      -1.940654   -0.271934    2.410979
H      -3.035646    0.562082    1.268389
H      -2.802660   -2.414553    1.898525
H      -4.659444   -1.113647   -0.177187
H      -4.762329   -2.793636    0.381318
H      -5.131543   -1.469588    1.495085
H      -1.515687   -2.756855   -0.444706
