19

O       0.001144    1.397160    0.450801
C       0.053790    0.033001    0.084429
C      -1.328598   -0.561321   -0.072511
C      -2.094841   -1.126637    1.119771
C      -1.699905   -2.036871    0.003292
C      -2.761213   -2.337985   -1.057267
C      -3.300137   -0.961735   -1.504571
C      -2.205790    0.039974   -1.120975
O      -2.033684    1.130494   -1.623420
H      -0.518284    1.829620   -0.241175
H       0.615624   -0.107135   -0.853584
H       0.603249   -0.491448    0.874022
H      -1.524446   -1.176277    2.040999
H      -3.138464   -0.862924    1.259312
H      -0.928738   -2.777085    0.187429
H      -2.292806   -2.849070   -1.904691
H      -3.547648   -2.997070   -0.676542
H      -3.513695   -0.892982   -2.572899
H      -4.223334   -0.683726   -0.982288
