15

O      -0.019904    0.043447   -0.227256
C       0.001888    1.209900    0.013211
O      -1.132603    1.976142    0.186714
C      -0.704659    3.275727    0.549742
C       0.121839    4.059886   -0.535047
C       0.987814    4.597509    0.623258
C       0.705011    3.192333    1.208569
C       1.160942    2.205556    0.113549
O       0.944988    3.019316   -1.078036
H      -1.495922    3.810767    1.068120
H      -0.307175    4.661227   -1.332705
H       2.014405    4.868952    0.375816
H       0.500919    5.381718    1.207107
H       0.855198    2.911037    2.248829
H       2.158905    1.775671    0.125082
