13

N      -0.080294    1.318585    0.008671
C       0.052423   -0.026269    0.003040
O       1.109537   -0.631250   -0.008115
C      -1.258424   -0.774639    0.011458
C      -1.267551   -2.174224    0.007175
N      -2.414295   -2.837598    0.014486
C      -3.507089   -2.063640    0.025768
N      -3.550527   -0.730871    0.030307
N      -2.392660   -0.079659    0.022873
H       0.746054    1.891778    0.002644
H      -0.999527    1.730981    0.016915
H      -0.334381   -2.728133   -0.002189
H      -4.471613   -2.562564    0.032233
