21

O      -0.222720    1.474848    0.104027
C       0.003634    0.076199    0.044115
C       0.652450   -0.532392    1.301741
C       0.219521   -2.000265    1.223523
C      -1.262695   -1.907398    0.825970
C      -1.991287   -3.209872    0.424079
C      -2.763091   -3.033957    1.743860
O      -2.112591   -1.776942    2.008392
C      -1.350137   -0.656514   -0.074812
H       0.632228    1.911168    0.174730
H       0.630874   -0.165580   -0.829757
H       1.736987   -0.390257    1.342164
H       0.208854   -0.058582    2.184941
H       0.775078   -2.519025    0.430225
H       0.352918   -2.561261    2.151762
H      -2.601127   -3.126394   -0.477828
H      -1.359580   -4.097575    0.348711
H      -3.850676   -2.922671    1.659936
H      -2.545494   -3.781954    2.517305
H      -2.143054   -0.005135    0.301423
H      -1.589128   -0.914476   -1.110141
