19

C       0.030848    1.503230    0.001141
O       1.190393    0.659870    0.004307
C      -0.100013    0.045188    0.007993
C      -0.526239   -0.823803    1.198898
C      -1.085575   -2.015915    0.421702
C      -0.176633   -2.299177   -0.821620
C      -1.426996   -2.744197   -1.615105
C      -1.872714   -1.490121   -0.827553
C      -0.506333   -0.807025   -1.169134
H      -0.139768    2.065476    0.919134
H      -0.136488    2.063774   -0.918726
H       0.335491   -1.080163    1.822928
H      -1.277837   -0.342427    1.833234
H      -1.491122   -2.863347    0.977042
H       0.814863   -2.754963   -0.813533
H      -1.378784   -2.651349   -2.703683
H      -1.882949   -3.694552   -1.321919
H      -2.853722   -1.010265   -0.824470
H      -0.318781   -0.429312   -2.174988
