18

C       0.011875    1.567327    0.072106
O       1.397103    1.913278   -0.122543
C       2.232213    0.762505    0.037391
C       1.327841   -0.249840    0.725127
O       1.681726   -1.617948    0.572317
C       0.619013   -2.450224    0.797754
N      -0.605450   -2.174134    0.947987
C      -1.070046   -0.787523    0.793568
C      -0.019058    0.043614    0.072326
H      -0.340334    1.982336    1.028491
H      -0.575850    2.018344   -0.733250
H       2.568557    0.375366   -0.935476
H       3.110289    1.047015    0.624640
H       1.271589   -0.030355    1.801189
H       0.966640   -3.480065    0.844263
H      -2.019308   -0.818268    0.248695
H      -1.294520   -0.376240    1.786915
H       0.046515   -0.308843   -0.965962
