14

O      -0.023228   -0.038855   -0.056242
C      -0.018669    1.165801   -0.007732
N      -1.094018    1.998699    0.135593
C      -0.830953    3.426606    0.060136
C       0.688514    3.492889   -0.021648
N       1.342060    2.901874    1.145324
C       1.195966    2.090024   -0.102194
C       2.352498    1.702802   -0.850842
N       3.299711    1.406034   -1.443729
H      -2.007212    1.614867    0.317514
H      -1.286713    3.875345   -0.831251
H      -1.198787    3.955616    0.946591
H       1.165405    4.300262   -0.564072
H       2.304720    3.231770    1.202934
