25

C       1.207509    1.765273    0.056443
C       0.801513    0.291521   -0.059091
C       1.661621   -0.855382   -0.699996
C       2.557853   -0.856860    0.582184
C       3.666127    0.177426    0.810535
C       1.073191   -0.744358    1.081240
C       0.713217   -1.883355    0.042043
C      -0.752159   -2.039696   -0.402698
C       1.216520   -3.320378    0.268293
H       1.639867    2.141117   -0.878307
H       0.312906    2.365257    0.255163
H       1.911678    1.977236    0.859980
H      -0.220268    0.285239   -0.431353
H       2.000887   -0.917785   -1.738648
H       2.991068   -1.825393    0.820757
H       3.677562    0.537461    1.846001
H       4.636791   -0.296738    0.629530
H       3.614505    1.045649    0.154800
H       0.733921   -0.681973    2.119892
H      -1.339598   -1.123114   -0.430665
H      -0.797807   -2.492542   -1.400077
H      -1.267292   -2.725587    0.279425
H       0.723294   -3.759821    1.143241
H       0.943170   -3.940542   -0.592974
H       2.291083   -3.430167    0.407028
