18

O       0.032738   -0.040069   -0.100530
C      -0.023762    1.157659    0.001348
C      -1.309138    1.958494    0.043570
C      -1.329606    3.019515   -1.080773
C      -0.076843    3.905112   -1.050429
C       1.204428    3.066036   -1.124580
C       1.271218    2.015935    0.020620
C       1.429357    2.661272    1.323305
N       1.533786    3.177762    2.352854
H      -2.151604    1.267779   -0.030163
H      -1.361724    2.464968    1.016281
H      -1.394847    2.510072   -2.050579
H      -2.232947    3.629679   -0.985125
H      -0.097115    4.612377   -1.885808
H      -0.066922    4.503948   -0.131281
H       1.237800    2.515888   -2.072561
H       2.095662    3.698989   -1.086770
H       2.108737    1.329209   -0.130621
