17

C      -0.057919    1.515238    0.032553
C       0.041789    0.008905   -0.001710
C      -0.813455   -0.817469    0.942264
C       0.689276   -0.776042    1.117556
N       1.443665   -1.826888    0.500395
C       1.280942   -1.907273   -0.865292
O       1.685933   -2.799237   -1.574838
C       0.479926   -0.665630   -1.295393
H       0.871244    1.981717   -0.314209
H      -0.869841    1.871674   -0.611751
H      -0.257334    1.878676    1.045666
H      -1.422027   -0.268501    1.653772
H      -1.252112   -1.746705    0.591286
H       1.141939   -0.291264    1.975729
H       1.757378   -2.642893    1.003675
H      -0.344026   -0.977073   -1.943742
H       1.128565   -0.012585   -1.890345
