18

C      -0.012241    1.569256    0.050900
C      -0.040978    0.067836    0.062592
C       1.123584   -0.794587   -0.362257
C       0.593000   -0.952910    1.039632
C       1.344027   -0.746453    2.228169
C       1.958826   -0.561753    3.246708
N      -0.596522   -1.849238    0.997227
C      -1.718189   -1.037296    1.510574
C      -1.273034   -0.799879    0.118367
H       0.974567    1.941810    0.342801
H      -0.232560    1.961693   -0.949040
H      -0.747869    1.986774    0.745957
H       0.983731   -1.618223   -1.057117
H       2.077617   -0.282737   -0.439655
H       2.509588   -0.411019    4.141795
H      -2.624736   -1.617432    1.654507
H      -1.515898   -0.298101    2.281271
H      -1.868142   -1.102400   -0.738523
