17

C       0.042698    1.548556    0.052516
C       0.012109    0.021162   -0.023886
N       0.697765   -0.506785   -1.203973
C       0.085207   -0.831088   -2.378837
C       1.089266   -1.222646   -3.241923
N       2.296592   -1.144204   -2.630933
C       2.052299   -0.706516   -1.401340
C       3.057571   -0.468554   -0.363517
O       4.247062   -0.624177   -0.507059
H       1.068616    1.919689    0.124100
H      -0.419210    1.991515   -0.834176
H      -0.507138    1.888384    0.935096
H       0.460675   -0.422143    0.868339
H      -1.019552   -0.338046   -0.069230
H      -0.985062   -0.763616   -2.493617
H       0.988270   -1.559627   -4.262870
H       2.643226   -0.120417    0.609165
