11

C      -0.014567    1.453192   -0.082928
C      -0.144785   -0.035890    0.080468
O      -0.439195   -0.621986    1.084703
O       0.128531   -0.657357   -1.117897
C       0.059640   -2.027930   -1.164685
N       0.309864   -2.591616   -2.260670
H       0.997042    1.702433   -0.415729
H      -0.703943    1.802858   -0.856722
H      -0.231375    1.943640    0.864882
H      -0.214212   -2.471968   -0.207563
H       0.222895   -3.601562   -2.155190
