15

O      -0.029190    1.345635    0.081776
C       0.114220   -0.041063   -0.048567
C       1.016069   -0.362718   -1.234556
O       1.307666    0.495912   -2.029195
C       0.585768   -0.637014    1.283744
C       2.051783   -0.323418    1.577468
O       2.856997   -0.137821    0.702825
C      -0.309417   -0.218248    2.448813
O       0.015070   -0.361977    3.598419
H       0.393987    1.721617   -0.709022
H      -0.858203   -0.513633   -0.294336
H       1.310583   -1.421151   -1.368950
H       0.522578   -1.737222    1.244407
H       2.321629   -0.300424    2.649577
H      -1.284088    0.227892    2.165445
