21

C       0.763171    0.522628    0.546841
C      -0.167438   -0.062368   -0.497225
O       0.132260   -0.092026   -1.668684
C      -1.510248   -0.673555   -0.003814
C      -2.121864    0.153565    1.139369
C      -2.490200   -0.776226   -1.184585
C      -1.109394   -2.078424    0.530802
C      -0.899307   -3.182842   -0.486276
O      -0.936201   -2.263956    1.713423
H       1.738837    0.703810    0.094812
H       0.361780    1.470300    0.921640
H       0.856452   -0.146692    1.407195
H      -2.284010    1.188561    0.822426
H      -3.091915   -0.266474    1.421178
H      -1.494499    0.144208    2.030026
H      -2.036776   -1.258813   -2.049721
H      -3.389104   -1.328255   -0.892705
H      -2.798898    0.225877   -1.496582
H      -1.862348   -3.509345   -0.893240
H      -0.299937   -2.828944   -1.330323
H      -0.413656   -4.029291    0.000288
