18

N      -0.034765   -1.106022   -0.133969
C      -0.026131    0.047845   -0.071832
C       0.007433    1.505095    0.011479
C       1.446142    2.057450    0.088757
C       1.451935    3.557639    0.126063
C       0.771823    4.546591    1.117620
C       1.307920    5.330584   -0.099850
C       2.637823    4.547829   -0.021501
O       0.767607    4.274087   -0.989042
H      -0.498018    1.928559   -0.862349
H      -0.567232    1.817427    0.890516
H       1.952804    1.671297    0.979558
H       2.016453    1.718033   -0.782080
H      -0.315143    4.478837    1.179377
H       1.247503    4.708189    2.088261
H       1.128458    6.365046   -0.388831
H       3.284805    4.709880    0.844271
H       3.186468    4.470715   -0.960948
