20

C       0.044941    1.204156   -0.181065
O      -0.172548   -0.174528    0.093969
C       0.613480   -0.708079    1.050620
N       0.492780   -1.924826    1.352942
C       1.316176   -2.545730    2.338352
C       2.514809   -1.814462    2.901744
C       0.551711   -3.510633    3.252026
C       1.382388   -4.051225    2.119747
O       0.779971   -4.598998    0.996114
H       1.063416    1.385593   -0.545539
H      -0.666633    1.477058   -0.960979
H      -0.138475    1.824679    0.704636
H       1.318657   -0.002986    1.506206
H       2.219660   -0.938389    3.492978
H       3.083622   -2.473739    3.562715
H       3.190233   -1.478203    2.105943
H       0.906063   -3.619663    4.271952
H      -0.524299   -3.542418    3.127443
H       2.317617   -4.548975    2.361019
H       0.288445   -3.869133    0.587706
