17

C      -0.175354    1.625404    0.008275
C       0.016726    0.098513   -0.013652
C       0.705186   -0.437672   -1.268926
C       1.738937   -1.209109   -0.938725
C       1.914880   -1.238629    0.539729
C       2.239694    0.085121    1.147954
N       0.850763   -0.390410    1.122218
C      -1.314969   -0.537569    0.115441
N      -2.360612   -1.025258    0.177863
H       0.780744    2.132147   -0.136820
H      -0.854258    1.932383   -0.791185
H      -0.603123    1.934847    0.964601
H       0.365366   -0.188581   -2.266207
H       2.391344   -1.730813   -1.627690
H       2.157549   -2.166204    1.049589
H       2.658504    0.142990    2.148639
H       2.555527    0.870664    0.467449
