11

N       0.024735    1.308759   -0.092900
C      -0.002309    0.056684    0.048524
O       1.155280   -0.688120    0.236852
N       1.144222   -2.110529    0.001093
N       0.057501   -2.662752   -0.139102
C      -1.147336   -1.909737   -0.017287
C      -2.386451   -2.776033   -0.004035
O      -3.492518   -2.331642    0.119911
N      -1.209797   -0.640568    0.062435
H       0.985138    1.653913   -0.112905
H      -2.167558   -3.855644   -0.118172
