14

C      -0.473721    1.518067   -0.053669
C       0.194555    0.174527    0.040838
O       1.100741   -0.025662   -1.114994
C       2.169336   -0.576474   -0.520550
C       2.133106   -0.554557    0.822836
O       0.979440    0.071741    1.251551
C       3.362288   -1.112511    1.200553
N       4.072254   -1.454976    0.129215
O       3.272630   -1.090350   -1.012787
H       0.278252    2.310222   -0.052772
H      -1.064044    1.577815   -0.971186
H      -1.137976    1.652505    0.803789
H      -0.514093   -0.665184    0.014830
H       3.791513   -1.299208    2.173676
