21

C      -0.037413    1.225447    0.274806
O       0.173805   -0.168999    0.133215
C       0.653796   -0.596056   -1.133868
C       1.409297   -1.900982   -0.858655
O       2.402934   -1.710932    0.123586
C      -0.477385   -0.785831   -2.189728
C      -1.728779   -1.475114   -1.607378
C      -0.829851    0.471808   -2.848927
C      -1.124469    1.498947   -3.401253
H       0.866269    1.793815    0.011765
H      -0.864845    1.581480   -0.348643
H      -0.276522    1.402397    1.326567
H       1.375113    0.140598   -1.516363
H       0.696872   -2.687206   -0.561839
H       1.912577   -2.232196   -1.772880
H       1.959531   -1.235804    0.837743
H      -0.054774   -1.443701   -2.963315
H      -2.478091   -1.616754   -2.389717
H      -1.476554   -2.453073   -1.189881
H      -2.166793   -0.869579   -0.811886
H      -1.379926    2.405668   -3.891394
