16

O       0.018212    1.327601    0.036060
N       0.032045   -0.052929    0.007221
C      -1.126704   -0.595197    0.011163
C      -1.161494   -2.112196   -0.020734
O      -2.088015   -2.592046   -0.977169
C      -3.403581   -2.157876   -0.687865
C      -3.520626   -0.630484   -0.813361
C      -2.470172    0.096934    0.016717
O      -2.695453    1.118171    0.619893
H       0.956295    1.543097   -0.022619
H      -0.175300   -2.497129   -0.285758
H      -1.426612   -2.494619    0.980707
H      -4.062672   -2.655261   -1.403876
H      -3.698277   -2.479554    0.324979
H      -3.345215   -0.357914   -1.862833
H      -4.511718   -0.267729   -0.527996
