17

C       0.003978    1.078040   -0.584315
O      -0.205530   -0.318555   -0.438239
C      -1.326752   -0.656348    0.334435
O      -2.550486   -0.340959   -0.303173
C      -2.827778   -1.335472   -1.291873
C      -1.997035   -2.555095   -0.896652
O      -1.866227   -3.571374   -1.519593
C      -1.313231   -2.188390    0.438336
O      -0.073638   -2.782364    0.666165
H       0.892291    1.204705   -1.205657
H      -0.853888    1.557879   -1.067903
H       0.175159    1.553440    0.391728
H      -1.325765   -0.114944    1.287726
H      -3.899564   -1.557436   -1.283531
H      -2.549887   -1.000767   -2.299226
H      -1.987450   -2.487645    1.250848
H       0.551447   -2.344898    0.074513
