17

C      -0.134483    1.458216   -0.017145
N       0.000390    0.001760   -0.018027
C       0.056198   -0.690252    1.184282
O      -0.000906   -0.157331    2.266956
C       0.068572   -0.636166   -1.239794
N       0.023096   -0.047547   -2.366504
C       0.127734   -1.102400   -3.379909
C       0.244304   -2.422584   -2.570715
O       0.192811   -1.989430   -1.190315
H       0.716355    1.914305   -0.527590
H      -1.047448    1.750981   -0.539921
H      -0.171032    1.773934    1.023912
H       0.157833   -1.773754    1.038577
H      -0.753858   -1.092910   -4.029924
H       1.001414   -0.930545   -4.017815
H      -0.583758   -3.116068   -2.737848
H       1.188934   -2.950658   -2.723664
