13

O      -0.011575    0.011664   -0.112106
C      -0.017669    1.210437   -0.037711
C      -1.241080    2.120070    0.017834
O      -1.267960    2.931079    1.203501
C      -0.732944    3.493382   -0.014128
C       0.761074    3.417430   -0.068763
C       1.184421    2.136503   -0.033391
C       2.508632    1.652974    0.014253
C       3.624972    1.203394    0.050482
H      -2.195710    1.787910   -0.376316
H      -1.283953    4.328880   -0.431436
H       1.403243    4.288671   -0.082728
H       4.610164    0.807919    0.085038
