20

C      -0.045218    1.382971    0.140628
O       0.298462    0.034196   -0.092597
C       0.868569   -0.597286    1.022037
C      -0.131990   -1.162110    2.068097
N      -0.003702   -2.486561    1.435647
C       0.038443   -3.665340    2.271232
C       1.208099   -2.083643    0.704557
C       1.230386   -2.465790   -0.764954
O       2.239813   -2.613875   -1.403231
H       0.834674    1.976954    0.432104
H      -0.447804    1.778733   -0.794123
H      -0.808316    1.484936    0.926179
H       1.695577   -0.000566    1.426596
H       0.269821   -1.118013    3.093273
H      -1.145902   -0.746617    2.061607
H      -0.926497   -3.797950    2.771504
H       0.220128   -4.552246    1.655315
H       0.824688   -3.620987    3.048756
H       2.157849   -2.388787    1.169872
H       0.219180   -2.598239   -1.204450
