13

O      -0.078860   -0.005551   -0.038880
C       0.008891    1.182525   -0.004701
O      -1.075029    2.038882    0.006421
C      -0.468284    3.327302    0.049277
C       0.791711    3.361960   -0.853863
N       1.397772    4.358719    0.099577
C       0.770428    3.310956    0.981910
C       1.191971    2.126639    0.035176
H      -1.198390    4.130361    0.063111
H       0.856495    3.456132   -1.938007
H       2.413976    4.242190    0.108121
H       0.810018    3.344755    2.070819
H       2.198807    1.716567    0.035441
