18

C      -0.107517    1.467168   -0.013538
C       0.085386   -0.024693    0.040014
N      -0.713074   -0.843493    0.970864
C       0.770213   -0.759261    1.138471
C       1.461018   -1.927706    0.519957
C       1.237079   -1.966989   -0.792804
C       0.416509   -0.771509   -1.273492
C      -0.753547   -1.124427   -2.069987
C      -1.710997   -1.399524   -2.742327
H       0.745445    1.961935   -0.490906
H      -1.005458    1.720897   -0.588564
H      -0.219601    1.886521    0.991776
H      -1.153769   -0.213226    1.640651
H       1.170661   -0.255870    2.012499
H       2.026683   -2.657279    1.086769
H       1.559179   -2.741069   -1.478380
H       1.058347   -0.121509   -1.889148
H      -2.562850   -1.652149   -3.323366
