19

C      -0.082301    1.481215   -0.047556
C      -0.034335   -0.008062   -0.046593
C      -0.086945   -0.903814   -1.037777
C       0.037225   -2.256971   -0.326484
C      -0.934059   -2.025993    0.879016
C       0.144181   -0.914071    1.205056
C       1.196846   -1.942306    0.680123
C       0.211943   -0.302674    2.562769
O       1.088353   -0.511441    3.365906
H       0.818308    1.913620    0.407080
H      -0.164626    1.867008   -1.067513
H      -0.935725    1.864605    0.526299
H      -0.181640   -0.739397   -2.102385
H       0.010819   -3.169738   -0.920116
H      -1.948028   -1.688171    0.655468
H      -0.936182   -2.840817    1.609654
H       1.400277   -2.744745    1.394442
H       2.123884   -1.538428    0.269515
H      -0.642194    0.369427    2.815900
