17

O       0.134247    1.392472    0.134987
C      -0.017522   -0.000404   -0.073438
C      -1.461261   -0.399058   -0.037169
O      -1.922689   -1.619263   -0.626152
C      -2.551875   -0.373540   -1.003479
C      -3.578803    0.052268    0.093186
C      -3.608410   -0.940255    1.243622
C      -2.461639    0.015431    1.110775
O      -2.115695    0.989968    2.041425
H      -0.373291    1.616468    0.926347
H       0.401460   -0.236944   -1.056421
H       0.545572   -0.587449    0.672522
H      -2.574889   -0.127379   -2.057813
H      -4.345481    0.800534   -0.051977
H      -4.315798   -0.669346    2.021973
H      -3.481717   -2.001351    1.067129
H      -1.868511    0.550153    2.863159
