17

C       0.021596    1.505632   -0.614627
C      -0.098930    0.096556   -0.090965
N       1.113308   -0.712548   -0.048138
C       0.476057   -0.356286    1.227055
C       1.239511    0.584722    2.121561
O       2.084436    1.352044    1.742357
N       0.825629    0.488852    3.464941
C       1.265426    1.239351    4.552828
O       2.085127    2.113632    4.538319
H       0.959129    1.956690   -0.288845
H      -0.002920    1.496384   -1.709373
H      -0.813771    2.120664   -0.263624
H      -1.025147   -0.413674   -0.357595
H       0.922486   -1.686322   -0.267561
H      -0.087829   -1.132581    1.742941
H       0.116097   -0.197192    3.676823
H       0.738207    0.912088    5.473335
