15

O      -0.197580    1.414746   -0.005883
C      -0.090867    0.027311    0.028672
C      -0.396412   -0.815397   -1.181508
C      -1.320422   -0.837691    0.021980
C      -1.061635   -1.923114    1.047445
O       0.353585   -1.926725    1.249878
C       0.831735   -0.600464    1.066121
H       0.528513    1.758152   -0.537434
H      -0.764716   -0.284968   -2.052651
H       0.219457   -1.685898   -1.386817
H      -2.304740   -0.393746   -0.060486
H      -1.596782   -1.695498    1.983390
H      -1.341123   -2.931647    0.725525
H       1.882030   -0.672812    0.761803
H       0.772729   -0.004072    1.991207
