18

C      -0.042611    1.547046    0.084581
C      -0.035708    0.047044    0.086558
C       1.166170   -0.773191   -0.359316
C       0.633689   -1.001108    1.009999
O       1.428495   -0.897687    2.129107
C      -0.629150   -1.859564    0.995046
O      -1.241233   -1.899509    2.279331
C      -1.277319   -0.858410   -0.010863
H       0.922686    1.939915    0.420262
H      -0.234166    1.951453   -0.917264
H      -0.814796    1.946786    0.752926
H       1.082822   -1.527219   -1.142191
H       2.101182   -0.219834   -0.373965
H       0.846589   -1.098507    2.875623
H      -0.522536   -2.904295    0.684379
H      -1.649455   -1.041702    2.442454
H      -2.184990   -0.410123    0.409426
H      -1.519635   -1.251621   -1.004711
