20

C       0.163344    1.032562   -0.354288
N      -0.191913   -0.097756    0.478279
C      -1.107485   -0.852960    0.071378
O      -1.486937   -1.924999    0.812960
C      -2.541182   -2.705998    0.302054
C      -2.242714   -3.782376   -0.728748
C      -0.876645   -3.926896   -1.359431
C      -2.454860   -4.142939    0.732938
O      -1.366500   -4.531256    1.509478
H       1.223633    0.970054   -0.623534
H      -0.425790    1.109682   -1.282567
H       0.033960    1.960438    0.214039
H      -1.671567   -0.736479   -0.865068
H      -3.499697   -2.193019    0.292427
H      -3.081077   -4.003507   -1.385068
H      -0.084307   -3.803613   -0.619328
H      -0.767069   -4.925242   -1.794314
H      -0.720889   -3.194453   -2.158547
H      -3.373519   -4.651674    1.012891
H      -0.937226   -3.726941    1.827903
