17

C      -1.468785    0.723616   -0.338221
N      -0.270133   -0.032349    0.043707
C      -0.167092   -0.345359    1.422602
C       1.024605   -1.120454    1.930005
N      -1.127749    0.069254    2.154384
C       0.676624   -0.399781   -0.901920
O       1.693563   -1.024716   -0.666960
C       0.406573    0.007580   -2.275472
C       0.321162    0.271922   -3.446033
H      -1.500355    1.669249    0.206038
H      -1.446375    0.908238   -1.408898
H      -2.364246    0.158775   -0.072561
H       1.961861   -0.601185    1.723652
H       0.910157   -1.253705    3.008607
H       1.106652   -2.096114    1.448282
H      -0.967853   -0.200597    3.122850
H       0.239130    0.508948   -4.478970
