22

C       0.004701    1.583600    0.031120
C       0.057035    0.054418    0.053709
C       0.636141   -0.521522   -1.245334
C       0.941773   -2.019854   -1.110868
C      -0.325330   -2.869931   -0.959337
C       1.797539   -2.522593   -2.270908
O       1.757067   -2.228296    0.076975
C       1.555930   -1.398494    1.126366
N       0.815985   -0.378236    1.228608
H       1.010742    2.000630   -0.083590
H      -0.614866    1.943361   -0.797195
H      -0.409782    1.959275    0.970066
H      -0.973294   -0.308063    0.180920
H      -0.046702   -0.359500   -2.086361
H       1.569493    0.004753   -1.481152
H      -0.952177   -2.781838   -1.852420
H      -0.057723   -3.921863   -0.827303
H      -0.915625   -2.559692   -0.093690
H       2.722209   -1.943858   -2.345655
H       2.060658   -3.574230   -2.125095
H       1.251594   -2.429250   -3.214601
H       2.164559   -1.725398    1.968826
