20

C      -0.418277    1.019958   -0.116076
N       0.443531   -0.142467    0.098934
C       1.040993   -0.644167   -1.101437
C       1.714993   -1.983336   -1.062225
C       0.349445   -1.843529   -1.753056
N      -0.848425   -2.335780   -1.142455
C      -0.963883   -3.789200   -1.095855
C       0.349808   -1.888513   -3.198581
N       0.368604   -1.931598   -4.354529
H       0.090723    1.859854   -0.616440
H      -1.270618    0.724940   -0.735227
H      -0.801236    1.370138    0.846011
H       1.161514    0.064495    0.784322
H       1.449499    0.087246   -1.802346
H       2.601650   -2.132886   -1.666976
H       1.695524   -2.520004   -0.119898
H      -0.909431   -1.922223   -0.216922
H      -1.022075   -4.186317   -2.114370
H      -0.124094   -4.291036   -0.585866
H      -1.890834   -4.055004   -0.580854
