23

C       0.017633    1.268806   -0.099359
O       0.040823   -0.135904   -0.029039
C       0.718339   -0.616886    1.109813
C       0.673088   -2.138783    1.087140
C       1.383055   -2.759677    2.281878
O       1.285718   -4.165553    2.180219
C       1.924613   -4.863432    3.233026
C       1.851990   -6.341718    2.883690
O       2.491724   -6.610818    1.652473
H       1.033100    1.693685   -0.150426
H      -0.524851    1.542626   -1.007479
H      -0.494899    1.714070    0.768602
H       1.763641   -0.259432    1.114072
H       0.245690   -0.228556    2.029757
H      -0.370920   -2.468420    1.074329
H       1.136240   -2.498852    0.162350
H       2.442977   -2.453827    2.308570
H       0.926084   -2.417005    3.226007
H       2.977392   -4.548341    3.315548
H       1.428975   -4.662703    4.197361
H       2.363388   -6.929737    3.652887
H       0.795286   -6.653440    2.866130
H       2.140723   -5.961093    1.031849
