19

C       0.104502    1.585033   -0.034803
C      -0.072160    0.059881    0.049181
C      -1.569330   -0.300936    0.145261
N       0.594938   -0.579077   -1.116316
C       1.365174   -1.750937   -0.679185
C       1.492699   -1.531969    0.816302
C       0.701672   -0.539841    1.202050
C       0.705236   -3.042657   -0.976644
N       0.170730   -4.035683   -1.233437
H       1.164329    1.842095   -0.100925
H      -0.397258    1.977465   -0.925344
H      -0.327356    2.080720    0.841352
H      -2.111818    0.086448   -0.724859
H      -1.708936   -1.384735    0.188248
H      -2.024367    0.139296    1.038615
H      -0.052725   -0.799104   -1.862396
H       2.346977   -1.777679   -1.173836
H       2.134170   -2.145834    1.434092
H       0.586891   -0.177589    2.216768
