19

C      -0.306270   -1.169121   -0.124238
C      -0.065519    0.009215   -0.092910
C       0.234371    1.427898   -0.038185
C      -0.114401    2.104509    1.331098
C       1.382102    1.983531    1.741619
C       1.739616    1.755194    0.249224
C       1.997048    3.147718    2.467597
C       3.334534    3.667774    2.158440
O       2.161260    4.359929    1.722662
H      -0.524898   -2.207299   -0.162711
H      -0.183551    1.927596   -0.916512
H      -0.401865    3.148669    1.184052
H      -0.857558    1.603112    1.952437
H       1.543920    1.072652    2.327635
H       2.465750    0.977390    0.009799
H       2.025242    2.694820   -0.229310
H       1.619512    3.309286    3.479793
H       3.914661    4.170830    2.930611
H       3.920353    3.203754    1.366186
