16

C       0.119535    1.391304    0.143027
N       0.156904   -0.055690    0.136248
C       0.485757   -0.642458   -0.950412
N       0.819911   -0.005170   -2.159013
C       1.167788   -0.666307   -3.304796
N       1.228875   -1.946931   -3.407259
C       0.915654   -2.660143   -2.264735
C       0.559133   -2.096180   -1.080809
O       0.251252   -2.783305    0.041099
H       1.099311    1.848259   -0.083162
H      -0.608475    1.806395   -0.576428
H      -0.175501    1.741914    1.134779
H       0.798313    1.002866   -2.169959
H       1.398938   -0.032634   -4.157053
H       0.969581   -3.742628   -2.359297
H       0.327822   -3.726535   -0.143208
