22

C       0.053510    1.451059   -0.289969
C       0.022249   -0.039627    0.100009
C       0.690108   -0.264388    1.470615
C      -1.365663   -0.611723    0.044262
C      -1.895762   -1.611493   -0.741091
C      -3.274038   -1.775184   -0.401955
C      -4.242809   -2.748972   -1.002522
C      -3.540530   -0.859835    0.589222
N      -2.384461   -0.161996    0.853210
H       1.081426    1.828672   -0.305704
H      -0.387539    1.607780   -1.278249
H      -0.508776    2.062158    0.426060
H       0.603521   -0.591644   -0.647992
H       0.156852    0.269471    2.266173
H       0.700996   -1.325937    1.732883
H       1.722263    0.101785    1.466288
H      -1.349097   -2.171748   -1.486368
H      -3.917880   -3.786985   -0.862208
H      -5.233787   -2.651065   -0.548903
H      -4.358680   -2.595937   -2.082282
H      -4.453262   -0.650167    1.124964
H      -2.299246    0.570149    1.535682
