19

O      -0.128549    1.416233    0.065609
C       0.033021    0.006159    0.020904
C      -1.362151   -0.599903    0.000659
C      -1.367309   -2.112762   -0.056823
O      -0.320986   -2.752389   -0.095588
C      -2.680154   -2.784807   -0.028507
C      -2.825249   -4.114467   -0.784953
C      -2.727620   -4.160495    0.692707
O      -1.622122   -4.650504    1.351955
H       0.745749    1.815824    0.083734
H       0.587451   -0.313577   -0.872681
H       0.585859   -0.369790    0.893355
H      -1.925056   -0.278453    0.887142
H      -1.927517   -0.211226   -0.857022
H      -3.553615   -2.146641    0.041641
H      -3.779928   -4.296952   -1.265605
H      -1.949758   -4.423045   -1.346925
H      -3.632682   -4.345690    1.262231
H      -0.839809   -4.293206    0.895604
