17

C       0.136966    1.605726    0.274905
O       1.417732    1.595726   -0.401553
C       1.311406    0.199908   -0.739504
C       2.001073   -0.288881   -2.004241
C       3.160908   -1.176151   -1.406590
N       2.725268   -1.623055   -0.047994
C       1.801928   -0.811687    0.256220
N       0.711823   -0.685574    1.116767
C      -0.041830    0.096434    0.084839
H       0.212442    1.938148    1.314154
H      -0.585229    2.224245   -0.272567
H       1.338619   -0.905174   -2.618857
H       2.351817    0.548114   -2.612438
H       3.348292   -2.062394   -2.018902
H       4.103457   -0.619092   -1.343520
H       0.314856   -1.478101    1.604053
H      -0.989546   -0.329176   -0.242311
