22

C      -0.152888    1.370654   -0.025491
C       0.071700   -0.100450    0.297482
C       1.130019   -0.811988   -0.584871
N       2.100741   -0.701299    0.517751
C       3.086731   -1.747266    0.708834
C       1.009536   -0.424004    1.504960
C       1.360391    0.640846    2.533971
C       0.589743   -1.713051    2.211362
O      -0.273566   -2.467296    1.837571
H       0.794044    1.907671   -0.139952
H      -0.704822    1.468037   -0.966554
H      -0.737633    1.872734    0.752468
H      -0.876155   -0.635964    0.361272
H       0.850672   -1.848462   -0.826774
H       1.443034   -0.303093   -1.504689
H       3.804364   -1.710270   -0.118353
H       3.643940   -1.574856    1.635974
H       2.665552   -2.767572    0.739356
H       1.745437    1.537078    2.044704
H       0.486600    0.913536    3.136948
H       2.133604    0.274425    3.219546
H       1.196987   -1.954159    3.115975
