19

C       0.109810    1.580531   -0.029257
C       0.047399    0.037159    0.043521
C       0.893619   -0.492140    1.224665
C      -1.417576   -0.471941    0.117631
C      -2.219069   -0.024345    1.345048
N      -3.501692   -0.484946    1.349424
O      -1.782170    0.671881    2.242929
C       0.607836   -0.507869   -1.207471
N       1.039835   -0.938460   -2.189623
H       1.144761    1.912513   -0.145413
H      -0.463193    1.955574   -0.882479
H      -0.301458    1.999305    0.889279
H       0.490386   -0.099663    2.158215
H       0.877138   -1.585561    1.258467
H       1.933731   -0.173279    1.118122
H      -1.958300   -0.147169   -0.779441
H      -1.420174   -1.568315    0.091618
H      -3.875573   -1.060767    0.615806
H      -4.094514   -0.237487    2.124581
