23

C       0.468445    1.383643   -0.335036
C       0.035007   -0.073622   -0.111451
C       0.422179   -0.943823   -1.317730
C       0.655868   -0.627753    1.173695
C       0.103471   -0.128072    2.559896
C      -1.021847   -1.201671    2.409922
C       0.151408   -1.976839    1.767166
O       1.046044   -2.189809    2.873592
C       1.054989   -0.880963    3.496319
H       1.557649    1.455205   -0.439100
H       0.020926    1.789656   -1.248235
H       0.170420    2.027429    0.498246
H      -1.058700   -0.084836   -0.029512
H       1.510643   -0.970672   -1.446747
H       0.076279   -1.975546   -1.201757
H      -0.011264   -0.547260   -2.241792
H       1.748992   -0.591746    1.081947
H      -0.099725    0.919572    2.780430
H      -1.451541   -1.627018    3.320216
H      -1.808029   -0.914986    1.713197
H       0.046171   -2.902236    1.202683
H       2.073640   -0.475180    3.504870
H       0.691063   -0.953788    4.528306
