20

C       0.282051    1.496666    0.427197
C       0.482599   -0.019882    0.345451
C       0.413557   -0.546350   -1.095150
C       1.599561   -0.038793   -1.916507
O       1.540679    0.337093   -3.057733
C       0.444103   -2.062016   -1.222625
C      -0.044542   -2.666151   -2.510196
N       0.912220   -2.712590   -0.226608
O       0.902199   -4.096465   -0.440863
H       1.046839    2.040497   -0.138805
H      -0.693139    1.790732    0.023855
H       0.332485    1.841304    1.464131
H       1.445603   -0.302149    0.784216
H      -0.275392   -0.537543    0.941091
H      -0.492059   -0.185536   -1.597484
H       2.568545   -0.084620   -1.367423
H       0.113218   -1.971612   -3.339232
H       0.460400   -3.610739   -2.715726
H      -1.120439   -2.870007   -2.446223
H       1.296326   -4.429523    0.372327
