15

O      -0.096751    1.400617    0.093874
C      -0.027021    0.032455    0.055182
C      -0.244007   -0.792625   -1.251583
N       0.812384   -1.740369   -1.354054
C       0.846652   -2.286634   -0.192102
N       1.919663   -1.782851    0.688104
C       0.708073   -0.894389    1.121316
C      -0.355428   -1.947484    0.765279
C      -1.175598   -0.954941   -0.032279
H       0.650198    1.757929   -0.401755
H      -0.586644   -0.253519   -2.127689
H       2.046952   -2.403090    1.494362
H       0.805611   -0.455122    2.114213
H      -0.733801   -2.691262    1.459735
H      -2.244538   -0.803443   -0.063549
