20

C       0.019288    1.441670    0.288738
C      -0.076209   -0.021538   -0.150690
C      -1.461797   -0.603474    0.084289
O      -1.462796   -1.956057   -0.368302
C      -2.685348   -2.598347   -0.182101
C      -2.657515   -4.104320   -0.560512
N      -3.070392   -4.390031    0.818411
C      -3.006768   -3.094284    1.268309
O      -3.127640   -2.590497    2.353639
H       1.023755    1.838161    0.115565
H      -0.686239    2.071999   -0.263853
H      -0.203039    1.552553    1.355546
H       0.168381   -0.117253   -1.214982
H       0.653820   -0.630316    0.394776
H      -1.730089   -0.563750    1.148516
H      -2.222696   -0.028281   -0.470814
H      -3.518344   -2.037620   -0.632464
H      -3.371534   -4.425350   -1.324062
H      -1.649984   -4.447933   -0.811161
H      -3.172848   -5.261220    1.317740
