19

C       0.020861    1.437734   -0.416576
C      -0.088979    0.014687    0.067665
O       1.103715   -0.780324    0.070250
C       0.477853   -0.501120    1.326928
C       1.254455    0.308300    2.326109
C       0.483087    0.739912    3.616339
C       1.663654    0.195820    4.439376
O       2.002904    0.317174    5.579184
C       2.286187   -0.474993    3.204857
H       0.896523    1.944673   -0.006783
H       0.102318    1.456398   -1.508304
H      -0.874715    2.004232   -0.139127
H      -0.959910   -0.520081   -0.318608
H      -0.020994   -1.370776    1.767120
H       1.731244    1.161166    1.841918
H       0.240750    1.797267    3.745909
H      -0.426601    0.151979    3.788197
H       2.113044   -1.557415    3.204397
H       3.350087   -0.295451    3.034732
