19

O       0.063156    1.393935   -0.056979
C       0.056472   -0.020716   -0.005852
C      -1.349898   -0.575109   -0.034968
C      -2.305433   -0.547122   -1.284569
C      -3.094783   -1.614041   -0.473376
C      -1.712358   -2.099396    0.049196
C      -3.615648   -0.788830    0.720680
C      -2.312426   -0.021801    1.006500
O      -2.096562    0.834075    1.830417
H      -0.420978    1.688023    0.726310
H       0.626439   -0.372332   -0.873002
H       0.570769   -0.397095    0.894489
H      -2.801100    0.394064   -1.535865
H      -1.809568   -0.960901   -2.165784
H      -3.793980   -2.297103   -0.953065
H      -1.159244   -2.680516   -0.692709
H      -1.664799   -2.590679    1.025779
H      -4.432104   -0.103356    0.473007
H      -3.922934   -1.391186    1.581514
