20

C      -0.020510    1.547164    0.047077
C      -0.073060    0.018420   -0.015269
C       0.732437   -0.548278   -1.190222
C       0.737237   -2.094369   -1.258028
C       1.309391   -2.568074   -2.613143
C       1.287632   -4.021296   -2.772436
N       1.264908   -5.171200   -2.882872
C       1.571399   -2.631530   -0.104960
O       1.126722   -2.999550    0.948888
H       1.007078    1.904344    0.177099
H      -0.414112    1.998174   -0.870689
H      -0.612436    1.927127    0.884764
H       0.295945   -0.405435    0.925120
H      -1.115154   -0.312810   -0.105855
H       0.324237   -0.162835   -2.133620
H       1.769782   -0.186094   -1.140778
H      -0.283031   -2.469898   -1.132938
H       0.737065   -2.117768   -3.430987
H       2.344087   -2.220811   -2.726791
H       2.672309   -2.615782   -0.293071
