21

C      -0.006170    1.525270    0.069522
C       1.420686    2.117978   -0.074649
C       2.487862    1.032816   -0.275498
C       2.406126   -0.025480    0.835049
C       0.976323   -0.618663    0.982297
C      -0.015711   -0.007381   -0.018819
O       0.212084   -0.420022   -1.375548
C       1.547577   -0.631563   -1.744219
O       2.383339    0.483975   -1.598758
H      -0.444316    1.814499    1.031844
H      -0.669215    1.912860   -0.708210
H       1.472851    2.805312   -0.922926
H       1.685997    2.696333    0.817998
H       3.478826    1.498603   -0.252446
H       3.141117   -0.813183    0.644002
H       2.712602    0.461374    1.766493
H       0.988018   -1.706680    0.867071
H       0.584732   -0.420025    1.985173
H      -1.023126   -0.371250    0.209666
H       1.962942   -1.494763   -1.199240
H       1.533392   -0.861259   -2.812531
