17

O      -0.651575    1.137373   -0.113735
C      -0.178892   -0.131155   -0.115485
C       0.268552   -0.979189   -1.097996
N       0.641638   -2.182124   -0.514405
C       0.417598   -2.053169    0.766062
N      -0.089742   -0.811553    1.069231
C       0.379253   -0.695124   -2.545359
C      -0.446569   -1.474088   -3.536837
C      -0.775274   -0.027152   -3.278067
H      -0.626199    1.450631   -1.025107
H       0.590804   -2.799651    1.526137
H      -0.351716   -0.450773    1.971275
H       1.370257   -0.414839   -2.897241
H       0.009781   -1.732924   -4.485458
H      -1.117737   -2.225320   -3.138089
H      -1.684488    0.181355   -2.722778
H      -0.543565    0.700802   -4.047958
