20

C      -0.067373   -1.110063   -0.101251
C      -0.005767    0.088802   -0.157360
C       0.104744    1.539750   -0.216723
C       1.524341    2.025772    0.095112
O       1.519894    3.432333    0.011093
C       2.777362    4.013988    0.291632
C       2.644557    5.510786    0.243889
C       3.793913    6.329353   -0.215983
N       2.585762    6.210858   -1.046517
H      -0.137216   -2.168452   -0.055116
H      -0.179391    1.903945   -1.211028
H      -0.587887    2.005044    0.494432
H       1.825595    1.691704    1.100917
H       2.238174    1.589197   -0.621985
H       3.131426    3.695212    1.287235
H       3.530219    3.678016   -0.443969
H       1.972085    5.924371    0.992170
H       3.964451    7.313469    0.210468
H       4.698287    5.810071   -0.524897
H       2.742375    5.549197   -1.803731
