20

C      -0.595437    1.255550   -1.777074
C      -0.257540   -0.042188   -1.072858
C       1.145243   -0.542423   -0.852299
C       2.388841    0.197234   -1.294745
O       3.548037   -0.245325   -0.609127
C       0.308902   -0.075035    0.351227
C       0.625543    1.202493    1.118683
C      -0.198329   -1.128597    1.197101
N      -0.603633   -1.967778    1.883633
H       0.127195    2.051504   -1.587456
H      -0.628981    1.095446   -2.859822
H      -1.580604    1.617476   -1.465862
H      -0.981069   -0.828709   -1.267513
H       1.271381   -1.619606   -0.914463
H       2.574320   -0.017557   -2.352954
H       2.265337    1.285534   -1.210434
H       3.404031   -0.112060    0.333394
H       1.034645    1.978763    0.471254
H      -0.278544    1.600655    1.588518
H       1.351465    1.006744    1.914247
