15

O      -0.172434   -0.080208   -0.437715
C       0.233566    0.980884   -0.046801
C       1.389472    1.734404   -0.689854
N       1.228773    3.170404   -0.491611
C       2.418444    3.958673   -0.826791
C       2.829766    3.896994   -2.239917
C       3.127978    3.798755   -3.399039
C       2.197011    5.360291   -0.418253
N       2.020543    6.455647   -0.099992
H      -0.198793    1.495355    0.839815
H       2.298925    1.416864   -0.157722
H       1.497266    1.411154   -1.734603
H       0.443626    3.516585   -1.035352
H       3.240976    3.573550   -0.207420
H       3.399869    3.723809   -4.423790
