17

O      -0.617553    1.332237   -0.629712
C      -0.099033    0.127516   -0.079742
C      -1.163987   -0.967011    0.191637
C      -1.013963   -1.992588   -0.949073
O      -2.016315   -1.770256   -1.973577
C      -2.849423   -2.777230   -2.291874
O      -3.707142   -2.672857   -3.116097
C       0.346187   -1.690802   -1.526959
C       0.849245   -0.557714   -1.040568
H      -1.009549    1.114141   -1.483911
H       0.393383    0.439843    0.845988
H      -0.962861   -1.457484    1.148611
H      -2.169741   -0.545123    0.231895
H      -1.112547   -3.026535   -0.597452
H      -2.649874   -3.699872   -1.711267
H       0.800119   -2.324085   -2.280539
H       1.790516   -0.105530   -1.331616
