15

O       0.275126    1.342342    0.207748
C       0.147703   -0.012009    0.084158
C       0.901348   -1.075883    0.846291
C      -0.336580   -2.013456    0.766270
C      -1.109831   -0.954364    0.010844
C      -0.266489   -1.979237   -0.769354
C      -0.672702   -2.931832   -1.730114
C      -1.004946   -3.741883   -2.557828
C       0.974046   -1.032232   -0.686974
H       0.122996    1.746329   -0.654980
H       1.701205   -0.977966    1.566265
H      -0.696958   -2.810367    1.403031
H      -2.176454   -0.786665   -0.056488
H      -1.300812   -4.457731   -3.283518
H       1.835514   -0.911882   -1.329182
