25

C       0.096806    1.579728   -0.093445
C       0.002809    0.054890    0.016419
C      -1.436577   -0.500354    0.071913
C      -1.448307   -2.023589   -0.142688
C      -2.822589   -2.645598    0.141485
C      -2.863347   -4.136334   -0.204723
C      -3.212024   -2.392843    1.607283
C      -2.909798   -0.985027    2.048762
C      -2.140492   -0.142178    1.360158
H       1.140245    1.903152   -0.162601
H      -0.423207    1.943347   -0.986973
H      -0.343235    2.084222    0.772549
H       0.508531   -0.394043   -0.848315
H       0.550905   -0.288995    0.903420
H      -1.989451   -0.034097   -0.761093
H      -1.132407   -2.253485   -1.167814
H      -0.704138   -2.484726    0.523247
H      -3.558246   -2.125821   -0.489562
H      -2.123135   -4.694454    0.381320
H      -3.847543   -4.568410    0.007575
H      -2.644686   -4.305758   -1.264490
H      -4.278950   -2.608062    1.754446
H      -2.682225   -3.105603    2.259368
H      -3.360396   -0.657247    2.983375
H      -1.993129    0.866911    1.737911
