22

O       0.237144    1.399314    0.131807
C       0.061409   -0.007160    0.026652
C      -1.403611   -0.457505    0.047235
C      -2.141301   -0.054090    1.333946
C      -3.608012   -0.485490    1.248290
C      -4.323893    0.223776    0.086997
C      -3.498184    0.247016   -1.202796
C      -2.488813    1.325695   -1.403838
N      -2.061271   -0.060530   -1.206605
H       0.007602    1.781797   -0.719693
H       0.541269   -0.398177   -0.881359
H       0.575650   -0.440513    0.891750
H      -1.381126   -1.557999    0.018469
H      -1.647158   -0.536732    2.185084
H      -2.059254    1.026180    1.499431
H      -3.648658   -1.572777    1.098050
H      -4.133856   -0.279166    2.186264
H      -5.282842   -0.264431   -0.112232
H      -4.560427    1.251987    0.386330
H      -4.008958   -0.135715   -2.084024
H      -2.295678    1.735147   -2.393418
H      -2.377240    2.038110   -0.589392
