18

C      -0.095535    1.507361   -0.445699
C       0.012046    0.152902    0.264437
C      -1.326972   -0.546996    0.345369
N      -1.783212   -1.274526   -0.851373
C      -1.529373   -2.021224    0.384572
C      -0.386628   -3.026789    0.350265
C      -0.833882   -4.339475   -0.117082
N      -1.206773   -5.372922   -0.474838
H       0.877359    2.004547   -0.498200
H      -0.466895    1.376071   -1.466571
H      -0.784726    2.177479    0.080200
H       0.728449   -0.478938   -0.269698
H       0.403094    0.292277    1.280629
H      -2.083091    0.024743    0.885336
H      -2.779283   -1.155996   -1.009576
H      -2.391590   -2.372295    0.948476
H       0.405445   -2.672217   -0.313972
H       0.047047   -3.144301    1.350521
