23

C      -0.021031    1.594025    0.060517
C       0.011964    0.061783    0.083866
C      -1.376245   -0.569743   -0.037636
C      -2.086737   -0.442771   -1.431710
C      -2.360725   -1.944214   -1.654076
O      -2.830345   -2.368627   -0.333761
C      -1.441761   -2.113285    0.053201
C      -1.000600   -2.620940   -1.345265
C      -0.961901   -4.132944   -1.509832
H       0.984470    2.015015    0.157739
H      -0.450128    1.969410   -0.874582
H      -0.629024    1.987066    0.882830
H       0.662240   -0.299185   -0.722946
H       0.475680   -0.273646    1.021474
H      -2.020194   -0.159903    0.747997
H      -3.011238    0.136474   -1.389797
H      -1.441666   -0.013636   -2.205254
H      -3.006920   -2.252674   -2.477307
H      -1.143355   -2.596929    0.985248
H      -0.114395   -2.150904   -1.783957
H      -1.852698   -4.589829   -1.071845
H      -0.915858   -4.411320   -2.568351
H      -0.079437   -4.557843   -1.019087
