21

C      -0.005437    1.542668    0.044787
C       0.041403    0.013546   -0.016430
C       0.729703   -0.512187   -1.280350
C       0.766819   -2.043077   -1.339242
N       1.427773   -2.567541   -2.538328
C       2.826517   -2.631479   -2.520858
N       3.551110   -2.942724   -3.512497
C       0.630229   -2.931966   -3.622135
O       0.996814   -3.342189   -4.689055
H       1.002959    1.970180    0.028934
H      -0.552969    1.955604   -0.809221
H      -0.500153    1.888521    0.957260
H       0.562507   -0.373737    0.869271
H      -0.979764   -0.387187    0.034205
H       0.214033   -0.136016   -2.173288
H       1.755518   -0.124578   -1.334653
H       1.277368   -2.444823   -0.456783
H      -0.251684   -2.442633   -1.314045
H       3.206157   -2.379847   -1.522192
H       4.530526   -2.933809   -3.229874
H      -0.440949   -2.800399   -3.364019
