21

C       0.037227    1.522115    0.131887
C      -0.067105    0.001658   -0.029769
C       0.719410   -0.544559   -1.223955
C       2.242610   -0.311493   -1.176397
O       2.815398   -1.293186   -2.042235
C       2.033706   -2.463748   -1.954606
C       2.171765   -3.290686   -0.657277
O       0.908900   -2.793813   -0.158388
C       0.651042   -2.065551   -1.384537
H       1.069031    1.840768    0.315181
H      -0.315143    2.043635   -0.765262
H      -0.567174    1.868347    0.975860
H       0.285679   -0.501819    0.876613
H      -1.121627   -0.279270   -0.142971
H       0.333810   -0.105838   -2.154760
H       2.555572    0.668544   -1.542911
H       2.615492   -0.431743   -0.147432
H       2.111854   -3.004091   -2.898733
H       2.152740   -4.379035   -0.794556
H       3.017856   -3.016460   -0.016723
H      -0.257964   -2.422289   -1.878959
