17

O      -0.068494    0.078458    0.248976
C      -0.079246    1.269870    0.066224
C      -1.237878    2.187991   -0.081112
C      -1.018467    3.515403    0.691334
C       0.067478    3.585156    1.757796
C       1.370866    2.857463    1.314905
C       1.145808    2.198198   -0.056382
O       0.739882    3.206520   -0.989616
C      -0.631865    3.419443   -0.740655
H      -2.232890    1.808691   -0.267772
H      -1.938240    4.048809    0.909976
H       0.280342    4.637908    1.970228
H      -0.316327    3.153956    2.687962
H       2.199058    3.564466    1.217802
H       1.668810    2.099760    2.045778
H       2.030131    1.692217   -0.442788
H      -1.122127    3.974902   -1.530073
