19

N      -1.176684    1.100846   -0.125406
C      -0.409266   -0.005127    0.010249
O       0.812753    0.033242    0.035267
C      -1.115915   -1.377166    0.079513
O      -0.124520   -2.366498    0.116384
C      -2.062637   -1.563114    1.287176
C      -3.380514   -0.835960    1.169281
C      -4.231685   -0.536630    2.342176
N      -3.535822    0.562115    1.641314
H      -0.705649    1.991415   -0.146970
H      -2.179275    1.090066   -0.009952
H      -1.717314   -1.478381   -0.840956
H       0.713704   -1.870481    0.089897
H      -2.246810   -2.641904    1.348514
H      -1.545738   -1.281204    2.213306
H      -3.899808   -1.006719    0.226439
H      -5.313160   -0.534544    2.245157
H      -3.864562   -0.822457    3.324246
H      -2.713658    0.818749    2.184603
