18

C       0.015954    1.577517   -0.055896
C       0.001599    0.048156    0.001436
C       0.689648   -0.590779   -1.204425
C       0.690662   -2.111548   -1.174841
O       0.191214   -2.754327   -0.274417
C       1.334932   -2.752736   -2.305828
C       1.873556   -3.274291   -3.251813
C       2.518889   -3.917521   -4.383422
H       1.039871    1.967561   -0.080511
H      -0.499155    1.949453   -0.948909
H      -0.482067    2.008890    0.817741
H       0.490760   -0.300728    0.917112
H      -1.028725   -0.318616    0.059593
H       0.217740   -0.276775   -2.146483
H       1.734457   -0.259351   -1.290155
H       2.471348   -5.008343   -4.303375
H       2.039274   -3.624916   -5.323863
H       3.573454   -3.627702   -4.446829
