23

C      -0.166200    1.551472    0.059983
C       0.054921    0.041780    0.051387
C       0.791966   -0.511318   -1.182928
C       1.236044   -1.939477   -0.779110
C       2.573458   -2.331384   -1.393471
O       2.854788   -3.673759   -1.030559
C       1.242747   -1.942411    0.781500
C       0.906182   -0.503864    1.220600
O       2.071705    0.284462    1.463065
H       0.789763    2.082223    0.078709
H      -0.723929    1.874933   -0.825117
H      -0.732478    1.863233    0.943993
H      -0.919799   -0.463999    0.112016
H       0.176799   -0.499147   -2.086976
H       1.668777    0.117811   -1.399612
H       0.498932   -2.665517   -1.137589
H       2.529652   -2.214642   -2.488763
H       3.361399   -1.648901   -1.026584
H       3.712319   -3.913554   -1.393538
H       0.491181   -2.638913    1.164274
H       2.203387   -2.261866    1.194469
H       0.360398   -0.475153    2.168316
H       2.659576    0.196504    0.706037
