19

C      -0.023880    1.431574    0.075274
N      -0.104053   -0.017084    0.007913
C       0.568556   -0.632560   -1.056452
C       1.143124   -0.097424   -2.193219
N       1.602863   -1.145858   -2.935815
C       2.410989   -1.091595   -4.127826
N       1.376474   -2.336456   -2.331808
C       0.745127   -2.032335   -1.204142
N       0.362561   -2.995455   -0.259262
H       1.008962    1.819918    0.080456
H      -0.538829    1.866296   -0.788910
H      -0.531841    1.782029    0.977170
H       0.147520   -0.454089    0.887063
H       1.254076    0.921044   -2.527745
H       3.484262   -1.104949   -3.898624
H       2.177307   -1.955796   -4.752893
H       2.179493   -0.177277   -4.679740
H       0.531292   -3.929161   -0.615387
H      -0.616747   -2.905787   -0.008560
