17

C       0.015815   -1.174514   -0.249337
C      -0.005986    0.006192   -0.023978
C       0.008484    1.440517    0.239812
C       1.417328    2.034322    0.133241
C       1.955718    2.266647   -1.320669
O       1.089207    3.449810   -1.389532
C       1.491655    3.596722    0.012846
C       3.008253    3.815232   -0.116505
C       3.326909    2.900500   -1.035423
H       0.017657   -2.217829   -0.445915
H      -0.647707    1.961479   -0.465414
H      -0.387703    1.631055    1.246107
H       2.106426    1.561735    0.836372
H       1.824996    1.554914   -2.134019
H       0.877486    4.284239    0.593941
H       3.616241    4.524120    0.425292
H       4.276068    2.632741   -1.474835
