17

N       0.653074    0.115016    0.257545
C      -0.532577    0.311037   -0.408642
O      -0.621732    0.945859   -1.447764
N      -1.628815   -0.293457    0.204244
C      -2.927863   -0.412733   -0.502062
C      -2.986131   -1.898108   -0.128458
C      -1.736629   -2.594530   -0.601175
O      -1.091399   -2.367108   -1.810600
C      -1.645661   -1.706929    0.609031
H       1.420878    0.677930   -0.070548
H       0.633417   -0.086085    1.243744
H      -3.697416    0.195699   -0.019873
H      -2.885670   -0.162050   -1.565895
H      -3.876053   -2.419444    0.197670
H      -1.715290   -3.655488   -0.368642
H      -1.072687   -1.422455   -2.008766
H      -1.328464   -2.013497    1.599996
