19

C       0.008442    1.473798    0.063133
C       0.002039   -0.022921   -0.014324
C      -0.952997   -0.898438    0.816154
C       0.550952   -1.045430    0.951288
C       0.459437   -2.072441   -0.227937
C      -1.072715   -2.188338   -0.005995
O      -1.738135   -2.083926   -1.249836
C      -0.929954   -1.237661   -2.088389
C       0.303771   -0.902632   -1.246064
H       0.973551    1.886241   -0.253045
H      -0.766827    1.912038   -0.576993
H      -0.178636    1.815865    1.086718
H      -1.658208   -0.460354    1.511273
H       1.199040   -0.958077    1.810007
H       1.091748   -2.936293   -0.416055
H      -1.447798   -3.061405    0.529197
H      -0.682430   -1.783818   -3.008551
H      -1.497492   -0.340001   -2.367332
H       1.195538   -0.614775   -1.805512
