18

O      -0.025773    1.327744    0.143169
C       0.041041   -0.037786   -0.018752
C      -0.609318   -0.918976   -1.073785
N      -0.411967   -2.095059   -0.126028
C      -0.262023   -1.064483    1.019111
C       1.180165   -0.899583    0.603690
C       1.084954   -2.216795   -0.106427
C       1.748228   -3.510522    0.220577
C       1.891058   -2.890560   -1.164639
H       0.677588    1.732921   -0.376260
H      -1.677585   -0.715193   -1.184166
H      -0.140682   -1.045678   -2.055713
H      -0.788896   -1.079039    1.961959
H       1.991264   -0.439158    1.154880
H       2.610166   -3.501456    0.879769
H       1.110838   -4.383141    0.312934
H       1.353451   -3.364750   -1.979697
H       2.848967   -2.464089   -1.444530
