18

C      -0.250456    1.348468   -0.241925
O      -0.281384   -0.057619   -0.299818
C       0.916086   -0.592453   -0.835640
C       0.853436   -2.045225   -0.878268
C       0.827733   -3.249264   -0.925261
C       0.793502   -4.680711   -0.973432
C      -0.409029   -5.393786   -1.574811
C       0.897064   -5.403738   -2.308900
H       0.568881    1.715915    0.397181
H      -0.131440    1.799060   -1.240784
H      -1.202418    1.676277    0.181702
H       1.088901   -0.193812   -1.851341
H       1.780931   -0.274046   -0.226591
H       1.262008   -5.181428   -0.131018
H      -0.737767   -6.303588   -1.085510
H      -1.207071   -4.769936   -1.958551
H       0.989530   -4.787306   -3.194890
H       1.474777   -6.320881   -2.330322
