22

C       0.030932    1.427266    0.174162
C      -0.253317   -0.045866   -0.149425
C       0.592133   -0.573584   -1.316410
C       0.110057    0.061080   -2.635849
N       2.150993   -0.503283   -1.116794
C       1.998105   -1.694185   -0.160809
C       1.049910   -2.055571   -1.333741
O       0.180413   -3.122667   -1.498298
C       2.230209   -1.574129   -2.217239
H       1.078026    1.565599    0.457893
H      -0.164565    2.075884   -0.685520
H      -0.599308    1.771322    0.999771
H      -0.126375   -0.642968    0.755708
H      -1.305747   -0.168864   -0.431729
H       0.837462    0.788469   -3.008823
H      -0.058787   -0.683941   -3.417318
H      -0.833489    0.591077   -2.489129
H       2.919807   -2.274336   -0.065559
H       1.595483   -1.449871    0.819268
H       0.689229   -3.940866   -1.514195
H       2.039304   -1.209874   -3.224484
H       3.160137   -2.147571   -2.177920
