18

N       0.018221    1.524797   -0.022255
C      -0.000044    0.066694   -0.057356
C      -0.007626   -0.553929    1.373423
N      -1.448889   -0.872266    1.244901
C      -1.435646   -0.562790   -0.209192
C      -2.608792    0.328438   -0.607929
O      -3.817642   -0.287591   -0.200064
C       1.004250   -0.496876   -0.967647
N       1.803122   -0.906727   -1.697471
H       0.912772    1.844424    0.339901
H      -0.062870    1.904216   -0.961966
H       0.652451   -1.422198    1.466737
H       0.219851    0.164629    2.167196
H      -1.671477   -1.837780    1.455291
H      -1.410475   -1.455675   -0.843870
H      -2.486855    1.319851   -0.155307
H      -2.660861    0.442244   -1.696100
H      -3.756282   -0.356410    0.761202
