20

C       0.086648    1.623015    0.045730
C      -0.057742    0.097836    0.018165
C       0.637387   -0.542522   -1.176814
C       2.183016   -0.580775   -1.207244
N       2.608335   -1.438243   -0.075387
C       2.194454   -2.062343   -1.363665
C       0.679849   -2.089229   -1.312420
C      -0.237672   -3.138667   -0.880370
O      -0.103903   -2.775442   -2.268799
H       1.139790    1.919521    0.100472
H      -0.340931    2.081349   -0.853332
H      -0.422644    2.053627    0.913273
H       0.357632   -0.334436    0.934422
H      -1.122215   -0.169158   -0.005039
H       0.256520   -0.136736   -2.121524
H       2.852364    0.157513   -1.630260
H       3.628219   -1.437789   -0.062486
H       2.854656   -2.711702   -1.924631
H       0.148503   -4.121722   -0.615007
H      -1.190707   -2.874447   -0.424782
