16

C      -0.225889    1.277774   -0.210514
O       0.011862   -0.113380   -0.080762
C       0.778460   -0.509795    1.045123
C       2.141266    0.165547    1.205073
C      -0.080026   -0.346217    2.314915
O       0.355473   -0.108750    3.407741
C       0.973596   -2.026204    0.827241
O       1.751503   -2.698923    1.443871
H       0.693054    1.832487   -0.436776
H      -0.923155    1.395548   -1.042563
H      -0.679426    1.709027    0.693478
H       2.040037    1.206645    1.518159
H       2.698145   -0.370899    1.974730
H       2.698273    0.119941    0.265584
H      -1.167757   -0.475371    2.117881
H       0.315473   -2.431277    0.030253
