18

N      -0.572786    0.957127   -0.005018
H      -0.604702   -0.065101    0.027501
H       0.081030    1.248969   -0.733700
H      -1.494666    1.324183   -0.261993
C      -0.194500    1.625043    1.350192
C      -0.416616    3.083747    1.268686
C      -1.836409    3.598465    0.990280
C      -1.307840    3.677651    2.376885
O      -1.808619    2.829741    3.339356
C      -0.823216    5.028829    2.977271
O      -0.984373    5.032502    4.222463
O      -0.349387    5.848457    2.182802
H      -0.852058    1.168566    2.096686
H       0.841503    1.335422    1.534738
H       0.397289    3.722766    0.944233
H      -1.896011    4.522199    0.426395
H      -2.636410    2.877638    0.815001
H      -1.629564    3.419788    4.130074
