19

C       0.474450    0.542481    0.709844
C      -0.367341    0.138372   -0.482811
O      -0.146639    0.530486   -1.604228
C      -1.525020   -0.829928   -0.200040
C      -1.019811   -2.226132    0.029925
C      -0.558938   -3.196785   -1.012798
C      -1.639328   -3.607378   -0.027777
C      -1.001099   -3.810622    1.339546
O      -0.363744   -2.503495    1.280192
H       0.800811   -0.346384    1.259516
H       1.330251    1.133308    0.381383
H      -0.133609    1.134607    1.404684
H      -2.089477   -0.503872    0.681531
H      -2.182294   -0.822187   -1.072911
H      -0.913751   -3.003262   -2.020007
H       0.438192   -3.624176   -0.948087
H      -2.628372   -3.926749   -0.326806
H      -1.719936   -3.847267    2.165479
H      -0.271689   -4.622192    1.445631
