17

C      -0.004036    1.488997    0.216543
C       1.253427    0.721861    0.034870
C       1.995935    0.334471    1.301898
O       1.927230    1.289391    2.393365
C       1.136578    0.387596    3.195947
C       1.075422   -0.657058    2.062540
C      -0.205568   -0.782186    1.210111
N      -0.065202    0.044159   -0.010870
H      -0.197884    1.884084    1.210232
H      -0.393417    2.093875   -0.597629
H       1.806605    0.768428   -0.898404
H       3.031175    0.039187    1.104729
H       1.682262    0.065204    4.091175
H       0.179783    0.830276    3.502308
H       1.498350   -1.629835    2.315789
H      -0.345568   -1.817991    0.885932
H      -1.105806   -0.489003    1.761986
