20

C       0.397461    1.626369    0.467602
C       0.246674    0.150603    0.190816
C       0.940022   -0.468021   -0.961504
N       1.456813   -0.651233    0.460450
C       1.076347   -2.119254    0.378280
C       0.202945   -2.680668    1.485407
C       0.557195   -1.924267   -1.054833
C      -0.457958   -2.605823   -1.860278
O       0.947655   -2.769410   -2.116647
H       1.389250    1.974439    0.166707
H      -0.355691    2.203797   -0.078735
H       0.277949    1.832449    1.536074
H      -0.717283   -0.268845    0.476191
H       1.490250    0.091699   -1.710941
H       2.015749   -2.679108    0.325919
H      -0.766621   -2.179126    1.551755
H       0.017037   -3.746465    1.315818
H       0.706758   -2.577429    2.451842
H      -0.963066   -3.487609   -1.467882
H      -1.010028   -2.052745   -2.619261
