19

O       0.307191    1.189625   -0.479327
C       0.066937   -0.125867   -0.042792
C       0.219565   -0.388612    1.485205
C      -1.314616   -0.602524    1.600236
O      -1.761045   -1.793242    2.205298
C      -2.123341    0.642640    2.030590
O      -2.240717    1.465415    0.871326
C      -2.428912    0.562543   -0.231309
C      -1.440960   -0.559995    0.044308
H      -0.278957    1.768943    0.028223
H       0.683452   -0.768593   -0.674138
H       0.770265   -1.306562    1.707187
H       0.649853    0.440273    2.055680
H      -1.487138   -1.786002    3.128906
H      -3.113452    0.304659    2.372239
H      -1.654006    1.241639    2.816560
H      -3.464763    0.193598   -0.251635
H      -2.223673    1.119357   -1.147816
H      -1.681445   -1.511728   -0.429605
