19

C      -0.084807    1.500893   -0.096977
C      -0.085262   -0.033260   -0.067958
C      -1.299787   -0.470230    0.841895
O      -0.364327   -0.553149    2.000434
C       0.683660   -0.734787    1.008703
C       2.023016   -0.224332    0.379648
C       1.135197   -0.622868   -0.921765
O       1.081183   -2.028595   -0.859668
C       0.763998   -2.216051    0.532998
H       0.791509    1.932151   -0.585517
H      -0.959968    1.834495   -0.666133
H      -0.162745    1.924890    0.910354
H      -2.051549    0.303820    1.011020
H      -1.779332   -1.432224    0.652272
H       2.226104    0.836241    0.488638
H       2.929650   -0.819229    0.517924
H       1.385333   -0.280744   -1.926265
H       1.566196   -2.762805    1.041329
H      -0.166071   -2.779252    0.635063
