19

O      -0.041266    1.321691   -0.517256
C      -0.044298   -0.071642   -0.286701
C      -1.436762   -0.565096    0.115703
O      -2.363431   -0.241385   -0.937536
C      -3.026694   -1.427295   -1.413469
C      -2.781569   -1.556028   -2.919366
O      -3.262409   -0.425092   -3.615295
C      -2.452195   -2.536888   -0.579401
C      -1.560721   -2.053453    0.278006
H      -0.760417    1.491337   -1.136660
H       0.289658   -0.635310   -1.172696
H       0.667378   -0.262131    0.524399
H      -1.741281   -0.018331    1.022036
H      -4.109619   -1.302650   -1.255793
H      -1.705106   -1.717040   -3.091231
H      -3.321277   -2.425131   -3.311829
H      -2.879418    0.342234   -3.174674
H      -2.751249   -3.571391   -0.691617
H      -0.987370   -2.614863    1.004855
