21

C      -0.520436    1.352782    0.206494
C       0.090621   -0.030737   -0.049458
C       0.868826   -0.559544    1.140670
O       1.975000    0.229562    1.511968
C       0.159672   -1.297612    2.255672
C       1.120079   -2.028952    1.337656
C       0.632689   -3.074799    0.384967
C      -0.177822   -4.216409    0.834301
O      -0.771985   -3.131988    0.117282
H       0.253841    2.101153    0.409348
H      -1.083062    1.699448   -0.665071
H      -1.206249    1.332371    1.060717
H      -0.698332   -0.742697   -0.305331
H       0.768283    0.024243   -0.910781
H       1.638323    1.039163    1.910626
H       0.482872   -1.108823    3.273155
H      -0.896255   -1.511550    2.127279
H       2.100500   -2.245677    1.753647
H       1.249586   -3.221037   -0.503521
H      -0.134692   -5.161626    0.295616
H      -0.456194   -4.284267    1.884585
