19

C       0.368369    1.408210   -0.576607
C      -0.050024    0.062053   -0.049014
O       0.960439   -0.918384    0.131194
C       0.303228   -0.452955    1.303511
C       1.103420    0.371313    2.277831
O       2.157773    0.892533    1.974353
C       0.503469    0.519773    3.633364
C       1.467663    0.576711    4.813913
C       0.776937    1.819658    4.377139
H       1.280538    1.750541   -0.086948
H       0.551908    1.338765   -1.653921
H      -0.429553    2.142067   -0.420171
H      -0.978106   -0.336134   -0.466367
H      -0.379670   -1.171719    1.758938
H      -0.454608    0.039976    3.798470
H       1.152312    0.090459    5.729656
H       2.516362    0.471494    4.561094
H       1.363036    2.551021    3.832641
H      -0.027539    2.216982    4.985154
