20

C      -0.018417    1.602289    0.028308
C       0.013621    0.072265   -0.016064
C      -1.388121   -0.545092    0.012807
C      -1.396905   -2.089650   -0.011930
C      -2.839417   -2.651495    0.131569
C      -2.888324   -4.101334    0.253840
C      -2.902766   -5.297451    0.362877
C      -0.766135   -2.595834   -1.235748
N      -0.271992   -2.965497   -2.212999
H       0.993140    2.018122    0.008731
H      -0.563126    2.011597   -0.829413
H      -0.510565    1.964952    0.937640
H       0.537759   -0.260476   -0.919325
H       0.593391   -0.309109    0.834717
H      -1.912600   -0.227487    0.922763
H      -1.976882   -0.173215   -0.835077
H      -0.805992   -2.461483    0.834180
H      -3.288512   -2.188018    1.018184
H      -3.436107   -2.325056   -0.728505
H      -2.923012   -6.355843    0.447392
