13

N       0.052168    1.371263    0.094389
C       0.003162   -0.009917    0.033657
N      -1.072945   -0.718590    0.117733
N      -0.620871   -2.030384    0.133113
C       0.733129   -2.173616   -0.013070
O       1.406875   -3.165492   -0.082882
N       1.156470   -0.790980   -0.046291
C       2.474780   -0.319194    0.005994
O       3.453369   -1.003326   -0.078187
H       0.536216    1.805954   -0.682651
H      -0.882321    1.751610    0.186534
H      -1.281709   -2.786866    0.131255
H       2.495654    0.776020    0.148468
