22

C       0.320340    0.712625    1.522035
C      -0.470069   -0.566999    1.833633
C      -1.150271   -0.495153    3.208384
C      -1.503826   -0.808114    0.752413
O      -1.037199   -1.195353   -0.546346
C      -1.884546   -2.112221    0.173473
C      -1.228795   -3.410697    0.592385
C      -3.270457   -2.269182   -0.418985
H       1.101252    0.882827    2.270187
H       0.793585    0.644107    0.538551
H      -0.337220    1.590152    1.520595
H       0.234566   -1.405276    1.834928
H      -1.882838    0.320069    3.242498
H      -1.675659   -1.425679    3.446559
H      -0.415360   -0.310395    3.998195
H      -2.271619   -0.027396    0.717982
H      -1.191061   -4.099966   -0.258477
H      -0.207629   -3.257508    0.943275
H      -1.804497   -3.897574    1.387272
H      -3.238380   -2.921407   -1.298882
H      -3.957141   -2.720069    0.305946
H      -3.674230   -1.301573   -0.726483
