17

C       0.774961    1.317724   -0.136884
O       0.788950   -0.101771    0.052074
C       0.264471   -0.550848    1.206344
N      -0.216301    0.225668    2.080515
C       0.397311   -2.073030    1.231007
C       1.892695   -2.511889    1.309002
O       2.037418   -3.907423    1.249441
C      -0.341051   -2.661745    2.345471
N      -0.876488   -3.146185    3.248139
H       1.340876    1.816392    0.654003
H       1.236257    1.488119   -1.109853
H      -0.250460    1.695404   -0.122441
H      -0.572027   -0.285961    2.885405
H      -0.006197   -2.473674    0.294649
H       2.403459   -2.096670    0.438632
H       2.341678   -2.080066    2.214418
H       1.708351   -4.285729    2.072750
