16

C      -0.112926    1.490233   -0.050291
N       1.252846    2.015784    0.112385
C       2.045116    1.055741   -0.134413
O       3.276437    0.950529    0.426837
C       3.128974   -0.118216    1.429072
O       1.787572   -0.340585    1.790587
C       1.040419   -0.839082    0.687833
C       0.034475   -0.030520   -0.160534
C       1.447647   -0.250001   -0.618368
H      -0.681415    1.802888    0.832208
H      -0.626185    1.899890   -0.930574
H       3.581659   -1.027617    1.012383
H       3.659318    0.221067    2.318967
H       0.822010   -1.900530    0.774288
H      -0.788232   -0.618297   -0.552494
H       1.829231   -0.790362   -1.475681
