20

C       0.139091    1.473041    0.047160
N      -0.038783    0.035189    0.062894
C      -1.270837   -0.558510    0.095975
O      -2.310255    0.081663    0.086418
C      -1.206551   -2.076002    0.129949
C      -1.256424   -2.850531    1.497588
C      -2.769048   -2.494089    1.584729
C      -2.517203   -2.912904    0.103639
C      -1.674403   -4.096850    0.667003
H       0.731010    1.791068   -0.818237
H      -0.854260    1.919072   -0.015203
H       0.632753    1.830225    0.958679
H       0.776959   -0.553643    0.091129
H      -0.418915   -2.434721   -0.544281
H      -0.512080   -2.804478    2.294670
H      -3.381226   -3.180340    2.176371
H      -3.036343   -1.453982    1.757134
H      -3.244068   -2.941544   -0.707666
H      -0.917760   -4.529343    0.005556
H      -2.228151   -4.870612    1.204733
