16

O       0.341004    0.823910    0.715436
C       0.080909   -0.322623   -0.032273
C      -1.417606   -0.657312   -0.282779
N      -1.442729   -1.456971   -1.506480
C      -0.290992   -1.108385   -2.341320
C       0.586337   -0.214558   -1.471782
O       1.457859    0.547074   -1.803266
C      -2.000267   -1.410932    0.888448
O      -2.211970   -2.598303    0.867214
H       1.015526    1.317273    0.222645
H       0.557725   -1.215943    0.412839
H      -1.958691    0.293941   -0.396146
H      -1.474297   -2.438001   -1.253489
H       0.269594   -1.986832   -2.681300
H      -0.580440   -0.547575   -3.239865
H      -2.188940   -0.798963    1.793525
