19

C      -0.219135    1.535810    0.012212
C       1.319595    1.378019   -0.028415
C       1.280366    0.083418    0.863023
O       2.066505   -0.728838   -0.053069
C       1.206370    0.097375   -0.915162
C       0.829729   -0.397705   -2.294546
C      -0.610678   -0.998844   -2.088984
C      -0.848815   -1.140779   -0.545975
C      -0.026828    0.000259    0.011403
H      -0.648035    1.982371    0.913690
H      -0.677732    1.975185   -0.879141
H       2.102310    2.137811   -0.037454
H       1.452378   -0.025152    1.934749
H       0.832877    0.391198   -3.050990
H       1.550434   -1.157352   -2.609084
H      -1.351185   -0.309188   -2.508101
H      -0.739186   -1.951368   -2.610486
H      -1.910813   -1.121849   -0.288075
H      -0.431015   -2.088933   -0.191687
