16

C      -0.017075    1.473526    0.091609
C      -0.001507   -0.011840   -0.047607
C      -0.042896   -0.806709   -1.172722
C      -0.001595   -2.171374   -0.733362
C       0.062604   -2.115857    0.638106
N       0.064554   -0.833223    1.087442
O       0.109346   -3.311938    1.245928
C       0.072687   -4.215153    0.184784
C       0.006000   -3.584411   -1.018915
H       0.886029    1.855990    0.584820
H      -0.071613    1.933918   -0.897507
H      -0.879670    1.829479    0.669839
H      -0.096470   -0.432233   -2.183593
H       0.105174   -0.517788    2.040125
H       0.102293   -5.249937    0.479658
H      -0.032040   -4.079746   -1.976937
