13

O       0.030680   -0.015294   -0.031235
C      -0.024743    1.172925    0.030172
N      -1.141993    1.990178    0.101081
C      -0.803959    3.367127    0.050624
C       0.689918    3.333879    0.039058
O       1.092860    1.996273    0.049355
C      -0.038186    3.872001   -1.193345
C      -0.085937    3.144498   -2.424467
N      -0.146466    2.551207   -3.415471
H      -2.028351    1.617785   -0.198479
H      -1.399539    4.064637    0.626614
H       1.335728    3.989433    0.607910
H       0.004330    4.951950   -1.294487
