18

C      -0.300198    1.536164   -0.020530
C       0.056527    0.059435   -0.031767
C      -1.060927   -0.910855    0.431700
O      -0.306456   -1.310790    1.596232
C       0.831179   -0.529653    1.171582
C       1.930568   -1.421552    0.574587
O       2.761596   -2.064346    1.174343
N       1.767167   -1.376396   -0.786788
C       0.827849   -0.390212   -1.291695
H       0.595673    2.160837   -0.103276
H      -0.960699    1.787592   -0.858759
H      -0.817054    1.807944    0.904865
H      -2.011534   -0.439370    0.707243
H      -1.258076   -1.754955   -0.241467
H       1.212191    0.120552    1.964158
H       2.412369   -1.871589   -1.382965
H       0.157164   -0.820498   -2.045596
H       1.347635    0.458495   -1.758079
