17

O       0.027794    1.347409   -0.008399
C       0.014000   -0.036213   -0.032353
C      -0.531809   -0.698187   -1.275261
C      -1.334121   -0.765782    0.009274
C      -1.398192   -2.061153    0.727492
C      -0.311926   -2.711307    1.145761
C       1.083610   -2.151679    0.995986
C       1.106341   -0.652480    0.766675
O       1.945057    0.074122    1.269382
H       0.812032    1.566944    0.522765
H      -0.857413    0.003821   -2.034306
H      -0.085242   -1.615184   -1.643673
H      -2.195484   -0.109471    0.069417
H      -2.382532   -2.498906    0.868044
H      -0.398555   -3.686666    1.614577
H       1.700996   -2.353203    1.876299
H       1.598653   -2.638187    0.152549
