22

C      -0.081065    1.564517    0.011376
C       0.009229    0.033366    0.002056
C       0.897810   -0.483909    1.138537
C      -1.408754   -0.569056    0.058842
N      -1.450420   -2.014260   -0.080249
C      -1.280153   -2.702406   -1.257441
C      -1.320278   -4.050313   -0.983291
C      -1.520841   -4.188675    0.417322
C      -1.595959   -2.919379    0.943694
H       0.912984    2.015004   -0.067181
H      -0.685924    1.939002   -0.821533
H      -0.534558    1.926266    0.942173
H       0.454874   -0.280099   -0.951665
H       0.504101   -0.173453    2.114470
H       0.961020   -1.575229    1.133052
H       1.913142   -0.084640    1.049820
H      -1.881592   -0.312899    1.013452
H      -2.025561   -0.127125   -0.732314
H      -1.153053   -2.171189   -2.187835
H      -1.228585   -4.845308   -1.707540
H      -1.611236   -5.109584    0.972739
H      -1.745997   -2.577003    1.955520
