17

O       0.010610   -0.087397    0.005447
C      -0.018466    1.119241   -0.026908
C      -1.316501    1.918734   -0.028741
C      -1.301177    3.065354   -1.056947
C       0.007895    3.877839   -0.926705
N       1.219162    3.060010   -1.040888
C       1.251861    1.973323   -0.054071
C       0.050755    4.958094   -1.920877
N       0.055428    5.792547   -2.719359
H      -2.152689    1.235700   -0.193864
H      -1.431552    2.342197    0.980068
H      -1.358432    2.660727   -2.074107
H      -2.171039    3.716490   -0.921875
H       0.031574    4.348711    0.067018
H       1.278300    2.676024   -1.979782
H       1.389082    2.417968    0.942952
H       2.111361    1.328558   -0.248230
