10

F      -0.005330    0.086462    0.003128
C      -0.015946    1.392307    0.011045
N      -1.208805    1.962917    0.030030
C      -1.148861    3.296371    0.036026
N      -0.039550    4.037567    0.024771
C       1.084643    3.320658    0.005510
N       1.164107    1.990132   -0.002414
C      -2.409837    4.002734    0.057138
N      -3.415648    4.570302    0.073996
H       2.021705    3.870240   -0.004447
