18

C      -0.103644    1.745466   -0.281813
C       0.012124    0.233581   -0.153739
C      -1.348555   -0.437968    0.096136
C      -1.973925   -0.012935    1.408501
O      -3.107369    0.378362    1.530467
C       0.893028   -0.476180   -1.214885
C       1.779103   -0.872700   -0.019004
O       0.950918   -0.132486    0.901599
H       0.882363    2.191004   -0.438011
H      -0.747027    2.012510   -1.127055
H      -0.535597    2.183279    0.623925
H      -2.049352   -0.229220   -0.718080
H      -1.191038   -1.524030    0.148021
H      -1.293712   -0.098150    2.282952
H       0.414886   -1.296988   -1.751997
H       1.361837    0.198464   -1.933419
H       1.799942   -1.943428    0.218701
H       2.808425   -0.496895   -0.033712
