14

N      -0.450011    1.067551   -0.028964
C      -0.568173   -0.155287   -0.301263
O      -0.599651   -1.058926    0.713300
C      -0.817402   -2.415059    0.344013
C      -2.268039   -2.695345    0.094090
N      -2.951674   -2.456048   -0.985731
C      -4.208038   -2.868831   -0.616441
N      -4.303646   -3.338772    0.597362
O      -2.998342   -3.222331    1.082287
H      -0.418532    1.615390   -0.886221
H      -0.647138   -0.609679   -1.296290
H      -0.249447   -2.677476   -0.555332
H      -0.463694   -3.018797    1.180691
H      -5.067567   -2.822528   -1.268815
