27

C       0.005547    1.593788   -0.118245
C       0.062564    0.067434    0.036032
C       0.860112   -0.314208    1.291203
C      -1.358069   -0.528516    0.022660
C      -1.452965   -2.050667   -0.041297
C      -1.294076   -2.925068    1.239218
C      -2.440721   -3.837523    0.723191
C      -3.450924   -4.393427    1.714626
C      -2.863434   -2.679886   -0.223181
H       1.010609    2.027293   -0.156449
H      -0.521343    1.884863   -1.033194
H      -0.520056    2.052989    0.727952
H       0.596136   -0.336993   -0.837036
H       0.985973   -1.395805    1.385287
H       1.858519    0.135923    1.270448
H       0.356105    0.043265    2.197513
H      -1.911124   -0.168376    0.903265
H      -1.889113   -0.122217   -0.850075
H      -0.783798   -2.425750   -0.826145
H      -0.323894   -3.388302    1.437688
H      -1.603263   -2.372397    2.134216
H      -2.015918   -4.656161    0.130206
H      -3.889270   -3.591369    2.319856
H      -4.271196   -4.909198    1.202237
H      -2.985315   -5.110508    2.400526
H      -3.633730   -2.053780    0.243282
H      -3.188836   -2.930327   -1.236815
