18

C      -0.794202    1.060621   -0.123604
O      -0.943844   -0.273869   -0.557074
C       0.036243   -0.673563   -1.453479
C       1.387703   -1.251434   -0.915828
O       0.632380   -2.403247   -0.377872
C       0.091685   -2.188202   -1.739678
C       1.559718   -2.046431   -2.243130
C       1.962591   -1.429516   -3.574113
H       0.134478    1.205119    0.447780
H      -0.793094    1.766018   -0.969767
H      -1.644320    1.286895    0.523553
H       0.096700    0.011987   -2.308940
H       2.145209   -0.801242   -0.272851
H      -0.704789   -2.852516   -2.076733
H       2.102913   -2.973590   -2.046781
H       1.441539   -0.497573   -3.804755
H       3.037360   -1.218312   -3.581199
H       1.763913   -2.131050   -4.391426
