18

C       0.237011    1.631001    0.041930
C       0.100812    0.110391    0.005597
C       0.766241   -0.594714   -1.164473
N       2.239470   -0.618431   -1.027203
C       1.452272   -1.830940   -0.706426
C       1.287063   -1.978421    0.792497
O       2.427308   -2.387139    1.500370
C       0.761410   -0.577901    1.212570
O       0.911826   -0.094930    2.302129
H       1.285425    1.915854   -0.082184
H      -0.348182    2.100572   -0.754314
H      -0.107852    2.015380    1.005001
H      -0.963962   -0.169850    0.023724
H       0.334178   -0.529081   -2.157686
H       2.674145   -0.719808   -1.940136
H       1.544043   -2.708417   -1.336880
H       0.505101   -2.718461    1.011830
H       3.078480   -1.680463    1.414708
