17

N       0.015892    0.940900   -0.941985
C       0.056887   -0.093315   -0.203345
N      -1.096234   -0.761301    0.213660
C      -1.939889   -1.497094   -0.721208
C      -1.089387   -2.220846    0.273428
C       0.224185   -2.886434   -0.086509
C       1.341460   -2.160885    0.689753
C       1.379740   -0.691123    0.293427
O       2.390452   -0.030959    0.275668
H       0.971319    1.294591   -1.043280
H      -3.009826   -1.405620   -0.560344
H      -1.628177   -1.502769   -1.762574
H      -1.577368   -2.615137    1.163869
H       0.204013   -3.951479    0.159871
H       0.414309   -2.810273   -1.163511
H       1.141327   -2.219902    1.768427
H       2.333354   -2.587761    0.521462
