22

C      -0.122744    1.523575   -0.096512
C       0.038844   -0.001932   -0.052383
C       0.841811   -0.497004   -1.263961
C       0.709640   -0.483748    1.249116
C      -0.029138   -0.149105    2.566267
C      -1.436818   -0.764640    2.642750
C       0.807623   -0.677781    3.715178
O       1.382601   -0.003314    4.529478
H       0.850031    2.021601   -0.004510
H      -0.568435    1.839949   -1.045151
H      -0.763639    1.896178    0.708048
H      -0.960178   -0.453387   -0.113959
H       1.854923   -0.077463   -1.261315
H       0.933697   -1.588265   -1.265007
H       0.362549   -0.199403   -2.202278
H       0.844223   -1.573180    1.191802
H       1.719176   -0.053131    1.298210
H      -0.085425    0.935851    2.697883
H      -1.913668   -0.538391    3.601481
H      -2.082423   -0.375271    1.851703
H      -1.396788   -1.854744    2.534386
H       0.866632   -1.793586    3.752373
