19

C      -0.498092    1.325682    0.116011
N       0.354973    0.153604   -0.109844
C       0.813097   -0.471987    1.069081
C       1.985903    0.108308    1.881916
C       1.942773    0.477721    3.347222
C       2.067995   -1.285481    1.366483
O       1.317753   -2.180311    2.233547
C       0.131155   -1.523028    1.900691
N      -1.060173   -1.822306    2.151092
H       0.079351    2.094617    0.638738
H      -0.801735    1.734936   -0.851566
H      -1.399760    1.110681    0.706941
H      -0.131491   -0.518823   -0.693547
H       2.533685    0.800588    1.243974
H       1.448913   -0.296887    3.937417
H       2.958251    0.601021    3.738086
H       1.406867    1.419772    3.498236
H       2.810653   -1.732553    0.720219
H      -1.121542   -2.675518    2.709619
