16

C      -0.034081    1.423931   -0.016191
N      -0.005235   -0.019678    0.012080
N       0.032913   -0.732911   -1.153449
C       0.043122   -1.997305   -0.771610
C       0.030950   -2.136804    0.642336
C       0.049099   -3.290721    1.449531
C       0.069233   -4.258442    2.169881
C       0.004094   -0.818176    1.102721
N      -0.090275   -0.325173    2.396225
H       0.958962    1.856004    0.158571
H      -0.380312    1.728157   -1.003545
H      -0.724801    1.794034    0.746836
H       0.062433   -2.787357   -1.507403
H       0.080026   -5.120696    2.788592
H      -0.016130   -1.072742    3.075442
H       0.568278    0.412468    2.614407
