17

O      -0.118066    0.863328    0.659164
C      -0.227465    0.104534   -0.530011
C      -1.455674   -0.817544   -0.546051
O      -1.456761   -1.436969   -1.808190
C      -1.377894   -1.816237    0.639940
C      -2.709527   -2.376057    1.074903
O      -3.273747   -2.086606    2.105972
C      -3.453585   -3.358677    0.157222
O      -3.193935   -3.539145   -1.007724
H      -0.822777    1.519146    0.664239
H      -0.265145    0.736178   -1.427906
H       0.677417   -0.508277   -0.594350
H      -2.353829   -0.185227   -0.409548
H      -2.050245   -2.201223   -1.777287
H      -0.709441   -2.631658    0.338233
H      -0.955677   -1.293778    1.501694
H      -4.300535   -3.862062    0.663970
