16

C       0.008097    1.545912   -0.000946
C       0.037640    0.027964    0.027829
O       0.771645   -0.459487   -1.116572
C       1.546602   -1.550360   -0.690823
C       2.530419   -1.313290    0.444702
O       2.176391   -0.112743    1.131247
C       0.793211   -0.589096    1.203746
C       1.206200   -1.992197    0.703637
H       1.022212    1.937072    0.102831
H      -0.413579    1.897325   -0.946158
H      -0.611767    1.931721    0.815137
H      -0.987069   -0.379944   -0.001729
H       1.783758   -2.260510   -1.473990
H       3.559143   -1.651315    0.495744
H       0.357659   -0.455952    2.194680
H       0.909626   -2.966512    1.066075
