21

C      -0.081901    1.554564    0.031956
C      -0.036065    0.029580    0.006964
O      -1.336893   -0.543782    0.086047
C       0.726871   -0.508396   -1.214832
O       2.051423   -0.003072   -1.123994
C       0.714583   -2.029568   -1.262841
C      -0.089436   -2.755581   -2.322146
C       1.414101   -2.714117   -2.398977
O       2.046428   -1.862998   -3.323065
H       0.928143    1.968684    0.007358
H      -0.624212    1.937738   -0.842791
H      -0.596078    1.903636    0.931569
H       0.486327   -0.331281    0.901403
H      -1.855349   -0.190351   -0.645245
H       0.236489   -0.120893   -2.125161
H       2.513678   -0.326269   -1.906882
H       0.798589   -2.509762   -0.292684
H      -0.575624   -3.691844   -2.071489
H      -0.632712   -2.137300   -3.030307
H       1.964892   -3.629027   -2.185607
H       1.952535   -2.235148   -4.205482
