14

O      -0.040797   -0.088336   -0.181942
C       0.040366    1.051833    0.195176
C       1.283083    1.897778    0.036926
C       1.167759    3.173324   -0.889794
C       1.497871    4.047330    0.323734
O       0.513210    3.784356    1.321141
C       1.604549    2.862802    1.206935
C       2.417459    2.610640    2.354962
N       3.092713    2.370176    3.262189
H      -0.814387    1.572753    0.675530
H       2.128746    1.267004   -0.238955
H       1.938760    3.176938   -1.661299
H       0.192130    3.369135   -1.339434
H       2.015137    4.997415    0.375990
