18

C       0.002085    1.473136    0.034312
C       0.005897   -0.039933   -0.062470
C       0.348081   -0.677348   -1.391743
C      -0.143710   -1.922312   -1.424404
C      -0.833799   -2.198029   -0.111795
C       0.107274   -2.156805    1.126120
C       0.651959   -0.775957    1.152426
N      -0.651770   -1.072723    1.830603
C      -1.255551   -0.808973    0.430479
H       1.003096    1.883635   -0.140168
H      -0.672550    1.911830   -0.708688
H      -0.324157    1.799066    1.027128
H       0.952542   -0.200733   -2.155240
H      -0.012313   -2.648078   -2.217869
H      -1.574833   -2.995664   -0.077785
H       0.547738   -2.988378    1.663771
H       1.533867   -0.485098    1.712624
H      -2.263955   -0.407214    0.327850
