18

C      -0.096764    1.388353   -0.048964
O      -0.007221   -0.022326    0.021531
C       0.642916   -0.571728    1.082306
C       1.233177    0.146081    2.116072
C       1.865496   -0.562998    3.137866
C       1.878738   -1.946795    3.079899
N       1.311024   -2.641680    2.085305
C       0.703170   -1.983252    1.101754
C       0.071590   -2.781856   -0.005998
H       0.895702    1.854258   -0.102064
H      -0.647938    1.612694   -0.963404
H      -0.639553    1.802411    0.810587
H       1.207949    1.228317    2.136479
H       2.337341   -0.038357    3.961425
H       2.361771   -2.531978    3.857880
H      -1.002208   -2.577068   -0.078719
H       0.503241   -2.520028   -0.978252
H       0.225972   -3.844232    0.185521
