19

C      -0.337468    1.430052    0.238006
C      -0.344301   -0.064453    0.034313
O      -0.627041   -0.866396    0.894441
C       0.040812   -0.562669   -1.383068
O       0.318940    0.246409   -2.240844
C      -0.010768   -2.047438   -1.602263
C      -1.425158   -2.623688   -1.978560
C      -0.725489   -3.518131   -3.036062
C       0.530458   -2.610732   -2.938390
H       0.655256    1.833480    0.014329
H      -1.023535    1.907419   -0.468872
H      -0.622216    1.664201    1.263892
H       0.371050   -2.563091   -0.719123
H      -1.981526   -3.106971   -1.174308
H      -2.058419   -1.861581   -2.441665
H      -0.535069   -4.523396   -2.650539
H      -1.208216   -3.606289   -4.011709
H       0.544304   -1.829128   -3.701827
H       1.507695   -3.097166   -2.911115
