15

O       0.002320    1.436072    0.054228
C      -0.005800    0.023160    0.023643
C      -1.427109   -0.478872    0.005006
C      -2.524526    0.378715    0.018504
C      -3.774003   -0.227365   -0.001329
N      -3.937286   -1.550354   -0.031582
C      -2.806369   -2.263907   -0.041710
O      -2.936448   -3.598771   -0.072092
N      -1.560079   -1.807945   -0.025233
H       0.916346    1.731995    0.063051
H       0.505881   -0.376526   -0.865585
H       0.496099   -0.414555    0.900504
H      -2.397673    1.450828    0.042952
H      -4.684601    0.367549    0.007284
H      -3.887583   -3.772720   -0.080821
