17

C      -0.012151    1.494586   -0.047050
C       0.020526   -0.010866    0.050207
O       0.675652   -0.608820   -1.097961
C       0.551129   -1.970862   -0.649581
C       1.126144   -1.882422    0.759914
C       0.791752   -0.670034    1.195019
C      -1.014875   -2.069813   -0.537288
O      -1.568602   -1.891971    0.773159
C      -1.374406   -0.743526   -0.060681
H       1.002596    1.894181   -0.119877
H      -0.571369    1.812650   -0.932125
H      -0.492645    1.923501    0.837565
H       1.009980   -2.657580   -1.358960
H       1.594881   -2.692188    1.300762
H       0.923697   -0.242342    2.179156
H      -1.592494   -2.669574   -1.232409
H      -2.263686   -0.189130   -0.344669
