18

O       0.020863    0.003679   -0.407411
C       0.005636    1.160071   -0.064877
C      -1.282123    1.914467    0.291642
N      -1.100046    3.311832    0.685057
C      -0.047094    4.086747    0.020818
C       0.959048    3.303526   -0.807796
C       1.223485    2.052969    0.072205
C       1.200556    2.617274    1.517635
C       0.101174    3.665549    1.448172
H      -1.960530    1.871643   -0.568446
H      -1.786681    1.378182    1.103828
H      -0.320118    5.095141   -0.275412
H       0.593391    3.041735   -1.806920
H       1.876781    3.888511   -0.938265
H       2.128993    1.502472   -0.184287
H       1.016477    1.839479    2.267060
H       2.157606    3.090537    1.765709
H      -0.054115    4.339485    2.285339
