17

C      -0.021787    1.439604    0.005256
C       0.017303   -0.014379    0.021513
C       0.046194   -1.219645    0.030508
C       0.089188   -2.647204    0.053534
C       0.812769   -3.598593    1.043017
C       0.136629   -4.582787    0.069856
C      -1.108010   -3.663833   -0.119968
O      -1.052269   -3.675990   -1.572878
C       0.339135   -3.637062   -1.152535
H       0.987753    1.864681   -0.022708
H      -0.562789    1.811140   -0.872052
H      -0.523214    1.834298    0.896012
H       1.905142   -3.563310    1.028227
H       0.442869   -3.590338    2.071535
H       0.143667   -5.670912    0.051504
H      -2.079690   -3.672208    0.373117
H       1.121286   -3.613012   -1.910840
