17

C      -0.054153    1.406474   -0.149146
N      -0.013644   -0.033980   -0.074102
C      -1.175655   -0.882940    0.052542
C      -0.572586   -2.290219    0.085531
O      -1.157742   -3.341867    0.182895
N       0.787408   -2.115776   -0.019310
C       1.755864   -3.193649   -0.029561
C       1.150426   -0.753434   -0.117584
O       2.281809   -0.336487   -0.219436
H       0.973079    1.762131   -0.241033
H      -0.629639    1.743556   -1.020044
H      -0.504264    1.839499    0.752611
H      -1.743375   -0.694617    0.972838
H      -1.867024   -0.789023   -0.794759
H       1.570445   -3.866428   -0.871176
H       2.743692   -2.741718   -0.123429
H       1.694914   -3.771403    0.896616
