11

N       0.194434   -1.085045   -0.005329
C       0.075491    0.066630    0.002298
C      -0.105668    1.467260    0.012058
C      -1.238223    2.238753    0.032302
C      -0.796664    3.585904    0.032815
C       0.572837    3.537322    0.012861
O       1.007405    2.248659   -0.000024
C       1.547991    4.558919    0.004036
N       2.325683    5.416648   -0.002787
H      -2.253174    1.876078    0.045070
H      -1.400016    4.478996    0.046063
