21

C       0.126311    1.636658   -0.018707
C       0.063439    0.117961    0.014714
C       0.944639   -0.692423   -0.988503
C       1.433577   -1.589777    0.182485
O       2.823148   -1.528255    0.454298
C       2.977572   -0.785375    1.655328
C       4.265283    0.005557    1.631011
O       1.863610    0.085675    1.733610
C       0.760625   -0.623992    1.191643
H       1.153581    1.981858    0.122478
H      -0.237581    2.016490   -0.979464
H      -0.487892    2.080568    0.772282
H      -0.977568   -0.217682   -0.042667
H       0.413308   -1.196513   -1.798629
H       1.771718   -0.115294   -1.408044
H       1.085051   -2.626568    0.166007
H       2.956360   -1.482195    2.513986
H       4.257845    0.694806    0.783161
H       4.372332    0.574657    2.557938
H       5.116044   -0.673377    1.533623
H       0.125093   -1.030541    1.987345
