16

C       0.011938    1.442656    0.010915
N       0.112927   -0.011154   -0.050383
C       0.680846   -0.654651    1.024533
N       1.309042   -0.078896    2.038848
C       1.725035   -1.153346    2.768441
N       1.398744   -2.336261    2.291055
N       0.723443   -2.003851    1.142567
C       0.188205   -3.016036    0.264752
H       1.004741    1.860174    0.185596
H      -0.362982    1.806363   -0.948490
H      -0.646524    1.795433    0.815627
H      -0.705974   -0.467822   -0.424336
H       2.286274   -1.051863    3.685812
H      -0.887672   -3.166109    0.418014
H       0.366332   -2.735506   -0.777992
H       0.705547   -3.951227    0.478175
