20

C       0.260144    1.521717   -0.351472
C       0.039889    0.076035    0.019204
N       1.212759   -0.811995    0.040591
C       0.495753   -0.544024    1.300523
C       1.240374    0.185079    2.352998
C       2.571502    0.855035    2.244977
C       2.359454   -0.211881    3.300999
C       1.452714    0.341685    4.391139
O       0.465080    0.770773    3.413812
H       1.192347    1.901123    0.069515
H       0.307642    1.634154   -1.440021
H      -0.563642    2.141372    0.017940
H      -0.879707   -0.351744   -0.379796
H       0.973716   -1.737022   -0.304651
H      -0.145372   -1.331935    1.694096
H       3.169471    0.536294    1.398465
H       2.669090    1.899838    2.530147
H       2.946315   -1.118824    3.352345
H       1.031242   -0.426381    5.049986
H       1.829587    1.177093    4.993999
