23

C      -0.013311    1.590137    0.008841
C      -0.111956    0.064697   -0.079079
C       0.832404   -0.537067   -1.126696
C       0.737940   -2.054609   -1.235425
C      -0.567930   -2.696535   -1.841967
C       0.308052   -3.333167   -2.925330
O       0.975790   -2.259331   -3.606866
C       1.537190   -2.737399   -2.372128
C       2.966883   -3.171434   -2.370866
H       1.000740    1.906538    0.277907
H      -0.259426    2.057429   -0.951115
H      -0.698338    1.993549    0.761281
H       0.107314   -0.374417    0.903599
H      -1.145414   -0.221618   -0.313690
H       0.620676   -0.104132   -2.111726
H       1.866609   -0.256657   -0.880404
H       0.972148   -2.524528   -0.272885
H      -1.039261   -3.419987   -1.172559
H      -1.323761   -2.001850   -2.218413
H       0.154377   -4.249039   -3.485891
H       3.638741   -2.305385   -2.366480
H       3.190060   -3.772928   -1.483474
H       3.186664   -3.764986   -3.262376
