19

C       0.137346    1.588361   -0.178223
C      -0.002407    0.090037    0.081259
O       0.371857   -0.646807   -1.095875
C       1.398047   -1.580783   -0.803818
C       1.698784   -1.397212    0.651614
C       0.901383   -0.457894    1.168186
C       0.814743   -0.010441    2.575844
C       1.778832   -0.613183    3.583532
O      -0.017051    0.812210    2.910466
H       1.181363    1.848821   -0.378818
H      -0.461258    1.866925   -1.049838
H      -0.212048    2.150517    0.690378
H      -1.054497   -0.131629    0.315805
H       1.061292   -2.608391   -1.021345
H       2.279321   -1.395816   -1.439431
H       2.450345   -1.973472    1.176768
H       2.816264   -0.417537    3.292472
H       1.586375   -0.176133    4.563702
H       1.654501   -1.699765    3.638055
