21

C       0.208204    1.157271   -0.298159
N      -0.240451    0.020449    0.484347
C       0.684895   -0.854424    1.020779
O       1.884040   -0.642899    1.028767
N       0.116879   -2.002455    1.558405
C       0.925651   -2.866107    2.369491
C       0.522678   -4.317397    2.457505
C       1.777061   -3.924857    1.713013
C       1.862979   -4.049530    0.209989
H       1.197124    1.438218    0.064522
H       0.288625    0.931077   -1.370085
H      -0.478421    1.998976   -0.167651
H      -1.148082   -0.354857    0.258277
H      -0.854092   -1.937642    1.827994
H       1.339009   -2.408101    3.265891
H       0.600435   -4.815102    3.417647
H      -0.327701   -4.627372    1.857844
H       2.710872   -4.118981    2.233292
H       0.895177   -3.847883   -0.256700
H       2.584319   -3.333190   -0.194891
H       2.175132   -5.058190   -0.081375
