16

N      -0.023499    1.382669    0.042361
C       0.035737   -0.010242    0.017105
O       1.085461   -0.624864   -0.052566
N      -1.180997   -0.648950    0.038720
C      -1.258864   -2.121298    0.017263
C      -2.781640   -2.417383    0.096288
C      -3.408505   -1.059454   -0.142539
C      -2.463764   -0.118195   -0.146264
H       0.892078    1.778159    0.200072
H      -0.739791    1.803097    0.616189
H      -0.812786   -2.495212   -0.910029
H      -0.686928   -2.539110    0.847400
H      -3.084641   -3.161337   -0.647388
H      -3.065504   -2.822499    1.076444
H      -4.467043   -0.883137   -0.263270
H      -2.578706    0.945385   -0.297293
