14

C      -0.007273    1.565348    0.061733
C       0.035801    0.075575    0.015852
C       0.001841   -0.768377   -1.059853
O       0.063872   -2.063288   -0.656388
N       0.141826   -2.093192    0.731424
C       0.124604   -0.836924    1.105287
O       0.185551   -0.470755    2.394918
C      -0.082968   -0.512728   -2.441697
C      -0.155836   -0.274656   -3.619403
H       0.889230    1.973281    0.540765
H      -0.075866    1.978609   -0.947050
H      -0.868550    1.919472    0.638275
H       0.238905   -1.274777    2.929005
H      -0.219939   -0.071367   -4.660151
