19

O       0.386668    0.871636    0.573913
C       0.156492   -0.409760    0.038264
C      -1.316359   -0.818686   -0.103873
C      -2.261754   -1.260002    0.968210
C      -2.456748    0.074446    0.282958
C      -1.056546   -1.399737   -1.505079
C       0.264271   -0.618734   -1.480193
C       0.797173    0.324559   -2.457182
O       1.449840   -0.929687   -2.183778
H       1.285025    0.904108    0.914543
H       0.737166   -1.176429    0.572131
H      -2.956001   -2.061658    0.737200
H      -1.905422   -1.258607    1.993848
H      -2.212360    0.972812    0.838678
H      -3.283553    0.177759   -0.412656
H      -0.895079   -2.482785   -1.501288
H      -1.768792   -1.146069   -2.294136
H       0.335996    0.404138   -3.440576
H       1.324564    1.211377   -2.110408
