21

C       0.002815    1.522282   -0.240433
C      -0.025529    0.005278   -0.097210
C       0.239540   -0.607828    1.298483
O      -1.011270   -1.331224    1.264908
C      -1.400442   -0.687328    0.037720
C       1.410581    2.093972   -0.216279
C       1.583301    3.619684   -0.041883
C       2.402273    3.240204    1.207869
O       2.094889    1.840341    1.038300
H      -0.468498    1.814881   -1.189679
H      -0.585649    1.981863    0.564621
H       0.592170   -0.456115   -0.873954
H       1.101279   -1.278221    1.386845
H       0.274375    0.122942    2.114413
H      -2.244562    0.002828    0.184072
H      -1.668865   -1.409864   -0.742746
H       1.994340    1.681947   -1.053298
H       2.121387    4.140098   -0.835164
H       0.651378    4.148777    0.168942
H       3.480320    3.431181    1.131843
H       2.042394    3.626084    2.168399
