18

C       0.057388    1.530885   -0.018732
C      -0.048471    0.040396    0.088401
C      -1.361396   -0.774991    0.055642
C      -0.704818   -1.756145    1.052520
C      -1.357074   -2.462159    2.170919
N      -0.740763   -3.219615    1.055471
C       0.571117   -0.940849    1.053164
N       1.081116   -0.792942   -0.311163
H       1.079472    1.854439    0.193773
H      -0.198275    1.870130   -1.029803
H      -0.622302    2.027142    0.682209
H      -2.218076   -0.246667    0.484561
H      -1.644471   -1.171508   -0.927138
H      -0.845089   -2.567443    3.124125
H      -2.441422   -2.422125    2.243479
H      -1.469370   -3.548467    0.425700
H       1.253666   -0.792089    1.882409
H       0.819140   -1.579895   -0.903241
