16

O      -0.843515    0.976580   -0.408161
C       0.264641    0.818477    0.023829
C       1.393774    1.851162   -0.089093
N       2.602852    1.252412   -0.792969
C       2.574215    2.392272   -1.749179
C       1.316423    2.307027   -2.547034
C       1.279953    2.937319   -1.174302
C       1.692920    2.357410    1.237445
C       1.922632    2.731511    2.357687
H       0.577201   -0.113009    0.544032
H       3.406337    1.318365   -0.174878
H       3.482754    2.886804   -2.068275
H       1.224911    3.023619   -3.356937
H       0.856597    1.341967   -2.732837
H       0.940480    3.946397   -0.989427
H       2.131129    3.077947    3.340138
