18

C       0.056961    1.339104   -0.171423
N      -0.074869   -0.017548    0.328021
C      -1.293116   -0.665802    0.189909
N      -1.334792   -1.991167    0.092657
N      -2.674116   -2.290274    0.044566
C      -3.108180   -3.660099   -0.070498
C      -3.427696   -1.175963    0.093702
O      -4.775521   -1.292042    0.045342
C      -2.587669   -0.082307    0.186545
H       1.084887    1.675826   -0.015579
H      -0.188876    1.449412   -1.239876
H      -0.594789    2.012819    0.394851
H       0.689968   -0.627515    0.073986
H      -2.744450   -4.245669    0.779263
H      -4.198225   -3.681056   -0.084922
H      -2.724321   -4.107101   -0.993008
H      -5.158947   -0.412905    0.115923
H      -2.868675    0.955127    0.253790
