17

O      -0.019941    1.416611   -0.079690
C       0.008877    0.021790    0.014896
C      -0.019050   -0.658369    1.437261
C      -1.473385   -0.134568    1.495256
O      -2.246873    0.345252    2.258686
C      -1.392382   -0.653349    0.036247
C      -0.662182   -1.853433    0.692156
C      -0.051046   -3.072503    0.085951
C      -1.139670   -3.182323    1.151866
H       0.863705    1.756330    0.094116
H       0.716407   -0.446149   -0.678073
H       0.757117   -0.679212    2.199832
H      -2.141360   -0.665753   -0.751967
H      -0.314054   -3.335626   -0.933514
H       0.960930   -3.344398    0.368528
H      -0.848102   -3.525710    2.139138
H      -2.122632   -3.517533    0.837053
