18

C       0.020949    1.576814    0.392690
O       0.684037    0.386767    0.028149
C       0.733045   -0.554362    1.054757
C      -0.538228   -1.362934    1.431858
C       0.366285   -2.615752    1.566452
C       1.459657   -1.892311    0.702642
C       1.422921   -2.251645   -0.702038
C       1.393285   -2.582698   -1.857504
H       0.508696    2.067482    1.250122
H       0.062599    2.247176   -0.468752
H      -1.033252    1.398785    0.652111
H       1.191506   -0.119150    1.958023
H      -1.114049   -1.047877    2.304389
H      -1.199879   -1.443896    0.565315
H       0.714905   -2.771799    2.590148
H      -0.013427   -3.556592    1.168801
H       2.484929   -1.965700    1.076667
H       1.371026   -2.858038   -2.882494
