17

C      -0.097918    1.501203    0.047922
C      -0.135845    0.011566   -0.239843
O      -1.335147   -0.517743    0.323080
C      -1.477912   -1.885020    0.141978
C      -2.770758   -2.499159    0.679108
O      -3.837868   -1.992083   -0.110141
C      -3.115259   -3.134966   -0.620614
C      -1.880356   -2.504624   -1.257786
O      -1.362458   -2.542906   -2.332779
H       0.814559    1.942259   -0.363887
H      -0.959742    2.000602   -0.403062
H      -0.118737    1.685638    1.125703
H      -0.111099   -0.182959   -1.320279
H       0.735485   -0.495987    0.206456
H      -0.591941   -2.446949    0.493412
H      -2.995957   -2.853560    1.677217
H      -3.675708   -4.034573   -0.842105
