16

O       0.120743    1.374745    0.254679
C      -0.014919   -0.008333    0.114146
C      -0.441405   -0.871395    1.262480
C      -1.475546   -0.119900    2.106592
C      -2.416211   -0.024658    0.845825
C      -2.889885    1.275595    0.395387
C      -3.270891    2.349210    0.005002
C      -1.328298   -0.722614    0.005292
H      -0.626579    1.804543   -0.176693
H       0.765851   -0.451730   -0.503267
H       0.137193   -1.724765    1.593945
H      -1.924132   -0.717586    2.900890
H      -1.133561    0.835144    2.509072
H      -3.272152   -0.691933    0.981175
H      -3.622746    3.294718   -0.327071
H      -1.541682   -1.421632   -0.795052
