22

C      -0.127668    1.549134   -0.053912
C       0.038949    0.037287    0.022168
N       0.887628   -0.478446   -1.085201
C       2.258984   -0.577378   -0.514864
C       2.240955   -0.116739    0.935481
C       0.789888   -0.558459    1.249052
C       0.239649   -0.269713    2.631212
C       0.839317   -2.041112    0.797497
C       1.391698   -1.787143   -0.599289
H       0.830149    2.074610   -0.007052
H      -0.603963    1.820669   -1.000336
H      -0.759538    1.914296    0.762204
H      -0.950615   -0.429418   -0.067160
H       3.085890   -0.386020   -1.187883
H       2.975834   -0.649799    1.548582
H       2.408298    0.956553    1.060144
H       0.260009    0.802302    2.854529
H      -0.798951   -0.607911    2.721114
H       0.820395   -0.778933    3.407998
H       1.510238   -2.650343    1.412872
H      -0.149608   -2.512148    0.791496
H       1.523503   -2.571396   -1.335160
