23

C      -0.101665    1.532027   -0.075411
C       0.017950    0.026320    0.017119
C       1.320929   -0.679589   -0.237761
C       0.727568   -0.673619    1.168127
C       1.403957    0.142046    2.263340
C       2.183765   -0.770541    3.221312
C       1.254852   -1.798691    3.882716
C       0.336523   -2.441864    2.875829
C       0.128511   -1.941697    1.656304
H       0.809480    2.037920    0.255236
H      -0.288504    1.839689   -1.110459
H      -0.930498    1.906558    0.535881
H      -0.866027   -0.498698   -0.339584
H       1.316651   -1.608989   -0.797359
H       2.203504   -0.067312   -0.400177
H       2.073360    0.892573    1.832501
H       0.641030    0.690039    2.833862
H       2.960867   -1.299870    2.655849
H       2.694846   -0.172981    3.983706
H       1.846617   -2.569815    4.392126
H       0.660924   -1.317304    4.674798
H      -0.163727   -3.361011    3.170830
H      -0.521559   -2.468608    0.959806
