19

C      -0.141446    1.538601    0.091998
C       0.137448    0.067380   -0.037801
O      -0.525435   -0.793696    0.910587
C       0.909780   -0.744440    0.923972
C       1.599434   -1.889942    0.201174
C       1.146230   -1.790781   -1.264541
O       2.100189   -2.076873   -2.245110
C      -0.309519   -1.946298   -1.603186
C       0.284079   -0.559025   -1.411981
H       0.616077    2.124348   -0.439567
H      -1.118810    1.787008   -0.335820
H      -0.143052    1.838272    1.142864
H       1.343604   -0.338463    1.835657
H       2.684112   -1.739037    0.230016
H       1.381982   -2.860417    0.660951
H       2.066109   -3.022121   -2.427241
H      -0.525576   -2.229726   -2.628070
H      -1.000195   -2.306458   -0.850740
H       0.388749    0.090066   -2.272759
