15

C      -0.004105    1.523281   -0.174138
C      -0.231085    0.143651    0.399459
C      -1.379062   -0.667084   -0.020907
O      -0.063979   -0.952829   -0.498640
C       1.427324    1.961834   -0.164867
N       2.375045    1.312581    0.457697
O       3.519012    2.085262    0.214419
C       3.115085    3.112771   -0.531054
N       1.851288    3.112566   -0.805773
H      -0.370440    1.557481   -1.205310
H      -0.589253    2.262654    0.388962
H       0.186258   -0.026264    1.391045
H      -1.801736   -1.401459    0.662943
H      -2.072076   -0.273967   -0.764396
H       3.865879    3.830335   -0.828399
