16

C      -0.215069   -1.113702   -0.498525
C      -0.090735    0.020630   -0.122658
C       0.065476    1.401471    0.321773
C       1.477413    1.960665    0.103176
C       1.832319    2.458624   -1.287478
C       1.603911    3.450188   -0.183042
C       2.512546    1.340002    0.885175
C       3.367455    0.822488    1.554434
H      -0.323217   -2.118306   -0.824433
H      -0.648425    2.038777   -0.214685
H      -0.189268    1.478270    1.385862
H       2.846300    2.295640   -1.631211
H       1.071276    2.350478   -2.052628
H       0.688140    4.031834   -0.189917
H       2.462454    3.962611    0.233609
H       4.123559    0.358480    2.137535
