19

C      -0.120565    1.519081    0.048047
C      -0.036428    0.009808    0.007456
C       0.064511   -0.684852   -1.211249
C       0.095943    0.015887   -2.550661
C       0.139174   -2.086560   -1.183616
O       0.238627   -2.827126   -2.327382
C       0.115266   -2.792958    0.017473
C       0.015437   -2.095428    1.212108
C      -0.059767   -0.705759    1.206817
H       0.760590    1.992863   -0.399922
H      -0.996933    1.897293   -0.490953
H      -0.193160    1.871586    1.079731
H       1.023254   -0.195776   -3.101418
H      -0.741758   -0.290872   -3.192674
H       0.032311    1.098849   -2.447949
H       0.246172   -2.240117   -3.089130
H       0.175552   -3.874665   -0.012497
H      -0.003886   -2.637048    2.152139
H      -0.137762   -0.164937    2.144268
