18

C       0.047337    1.498083   -0.267382
C       0.002540    0.058881   -0.058261
C      -0.027580   -1.131148    0.128255
C      -0.072059   -2.566771    0.329718
O      -0.161685   -2.978534    1.721693
C      -1.333303   -3.793994    1.478144
C      -1.389524   -3.311667    0.036632
C      -2.510381   -2.881728   -0.814217
N      -1.736017   -4.106018   -1.124639
H       0.515182    1.744922   -1.226687
H      -0.956382    1.936678   -0.261207
H       0.629817    1.988581    0.520176
H       0.795871   -3.044556   -0.150483
H      -1.125679   -4.865197    1.591462
H      -2.170427   -3.509308    2.125783
H      -3.535480   -3.059671   -0.500196
H      -2.362885   -1.994350   -1.424455
H      -1.083806   -3.931189   -1.886342
