18

C      -0.237103    1.587109    0.038404
C       0.009508    0.064450    0.002449
C       0.742481   -0.383382   -1.278902
N       1.980950    0.329527   -1.577212
C       2.970603    0.168467   -0.815111
O       3.033187   -0.601408    0.315704
C       2.221000   -0.227969    1.431647
C       0.700647   -0.378687    1.285344
O       0.071878   -0.779572    2.237868
H       0.699414    2.150936    0.032010
H      -0.809996    1.890509   -0.843173
H      -0.806093    1.862668    0.930321
H      -0.963586   -0.437875    0.019528
H       0.942420   -1.462089   -1.217599
H       0.064930   -0.225668   -2.123542
H       3.933610    0.617826   -1.060922
H       2.532941   -0.865800    2.259242
H       2.428709    0.817246    1.707857
