19

C      -0.041253    1.513563    0.056389
C      -0.073911   -0.017994   -0.014231
C      -1.472242   -0.565771   -0.089412
C      -2.576025   -0.276099   -1.120773
C      -3.228993   -1.138249   -0.042290
C      -1.972316   -2.026916    0.180928
C      -2.046549   -1.718330    1.670689
N      -2.490114   -0.378562    1.091205
H       0.985404    1.879673    0.148865
H      -0.476423    1.961182   -0.842918
H      -0.614790    1.869364    0.916874
H       0.485096   -0.370075   -0.891269
H       0.431868   -0.442442    0.862309
H      -2.922302    0.759195   -1.184954
H      -2.455297   -0.725901   -2.110137
H      -4.273799   -1.425667    0.088386
H      -1.689801   -2.942754   -0.350859
H      -2.827035   -2.212669    2.258945
H      -1.116237   -1.667157    2.245412
