22

C       0.084302    1.386133   -0.324509
C       0.152005   -0.082193    0.042464
C       1.427449   -0.898501   -0.019528
C       2.654174   -0.089516    0.423578
C       1.953204    0.203814    1.791527
C       0.736309   -0.603880    1.327624
N      -1.102765   -0.718701   -0.331330
C      -1.228272   -1.292561   -1.667915
C      -1.231507   -2.163606   -0.459455
H       0.978112    1.937012   -0.027603
H      -0.032788    1.500378   -1.408077
H      -0.783641    1.848957    0.154582
H       1.487330   -1.829161   -0.571476
H       3.541786   -0.714436    0.546513
H       2.926507    0.770660   -0.196005
H       2.474571   -0.270481    2.625862
H       1.775696    1.252241    2.051002
H       0.152055   -1.269954    1.952474
H      -2.151495   -1.071220   -2.196433
H      -0.337607   -1.326719   -2.292962
H      -0.365567   -2.799986   -0.297209
H      -2.163798   -2.574701   -0.080977
