16

C      -0.043404    1.623999    0.207698
C       0.014293    0.120178    0.320047
C       1.154795   -0.713678   -0.136075
O       2.416770   -0.083389   -0.269637
C       2.755061    0.339749    0.978670
N       1.978455    0.073300    1.950065
C       0.848752   -0.615412    1.381395
C       0.224870   -1.706916    2.163608
O      -0.697232   -2.377954    1.763256
H       0.911419    2.097289    0.445103
H      -0.317713    1.914839   -0.811313
H      -0.795006    2.028256    0.891716
H      -0.931372   -0.400030    0.185899
H       1.048446   -1.605659   -0.740304
H       3.693643    0.876776    1.036116
H       0.685708   -1.866440    3.160824
