21

C      -0.283732    1.591543    0.144894
C       0.008798    0.096998    0.076985
C       1.075982   -0.452235   -0.926938
C       1.745119   -1.232326    0.216408
C       2.230015   -2.648364    0.120810
O       3.371562   -2.790122   -0.720341
C       2.214957   -0.268198    1.271781
O       2.674535    1.026636    0.993357
C       0.757987   -0.589346    1.233041
H       0.633468    2.164940    0.288210
H      -0.769952    1.931584   -0.776857
H      -0.960893    1.817424    0.976668
H      -0.927769   -0.446206   -0.088183
H       0.655098   -1.098834   -1.699822
H       1.707934    0.301276   -1.405017
H       2.423906   -3.044479    1.131285
H       1.462211   -3.285366   -0.333112
H       4.074799   -2.251712   -0.343189
H       2.734171   -0.750015    2.103864
H       3.524066    0.955842    0.545439
H       0.275171   -1.046929    2.090608
