18

C      -0.057096    1.490425   -0.339650
C       0.030500    0.002354   -0.110279
C       1.314212   -0.730054   -0.280252
N       0.763100   -0.542538    1.060131
C       1.393682    0.309283    1.958849
C       0.996075    0.769040    3.178893
C       2.066830    1.587510    3.667512
C       3.036640    1.557473    2.720203
O       2.640580    0.785161    1.662771
H       0.909860    1.977045   -0.188041
H      -0.387361    1.694352   -1.363473
H      -0.778278    1.949902    0.344651
H      -0.890127   -0.545882   -0.299759
H       1.323960   -1.758957   -0.629883
H       2.188936   -0.145645   -0.550353
H       0.063603    0.536366    3.666505
H       2.108327    2.113935    4.608424
H       4.022531    1.983557    2.641360
