17

C      -0.223858    1.458052    0.294067
N      -0.065579    0.019147    0.383592
H      -0.885045   -0.655692    0.365529
C       0.962898   -0.581580    0.936474
N       2.028403    0.027638    1.441081
C       0.921154   -2.077993    1.018856
O       1.950913   -2.568435    1.822340
C      -0.501291   -2.537287    1.599463
O      -1.495133   -2.040746    1.024200
O      -0.382344   -3.327729    2.539051
H       0.616279    1.907931   -0.246553
H      -1.137811    1.675223   -0.259199
H      -0.301807    1.926809    1.283894
H       2.094474    1.024751    1.553017
H       2.680829   -0.588354    1.911474
H       0.974983   -2.471554   -0.006389
H       1.429338   -3.095021    2.476832
