25

C      -0.067986    1.634834    0.009637
C      -0.010720    0.099506    0.088308
C       0.838505   -0.336808    1.271659
C       1.695067   -1.579423    1.236886
C       2.341554   -0.218510    1.198611
C      -1.426771   -0.544598    0.056908
C      -1.349282   -2.077319    0.012338
C      -2.319453   -0.095768    1.224811
O      -1.992947   -0.077956   -1.178787
H       0.935684    2.039488   -0.150406
H      -0.711682    1.958783   -0.809786
H      -0.447589    2.071383    0.939945
H       0.482249   -0.258347   -0.826179
H       0.412155   -0.092141    2.241955
H       1.786726   -2.171561    2.141281
H       1.703272   -2.165333    0.324097
H       2.775972    0.104203    0.257625
H       2.879381    0.126089    2.074858
H      -0.927062   -2.493117    0.930144
H      -2.353860   -2.499258   -0.114700
H      -0.738282   -2.405333   -0.833528
H      -2.463372    0.986910    1.216655
H      -3.306568   -0.566388    1.143834
H      -1.901338   -0.386351    2.193458
H      -2.878927   -0.448058   -1.251444
