11

O      -0.058795   -0.021500   -0.000522
C      -0.018136    1.168325    0.008435
N       1.195198    1.912456    0.000295
N       2.420087    1.334200   -0.017640
C       3.232496    2.372000   -0.019227
N       2.624355    3.597107   -0.003404
C       1.348810    3.281209    0.008634
C       0.253254    4.186660    0.027575
N      -0.663118    4.892157    0.043012
H      -0.888810    1.843546    0.022556
H       4.305517    2.253702   -0.032135
