21

C      -0.444621    1.514065    0.400113
C      -0.116804    0.040003    0.200102
C       0.293797   -0.451929   -1.194488
C       1.620922    0.112899   -1.614262
C       1.592566   -1.035235   -0.645993
C       1.245821   -0.563226    0.789144
C       2.236427    0.393009    1.468039
C       0.973988   -1.693828    1.666560
C       0.757822   -2.626167    2.395706
H       0.338736    2.173014    0.014571
H      -1.373294    1.766702   -0.123615
H      -0.588452    1.748261    1.460321
H      -0.941787   -0.566336    0.580593
H      -0.388302   -0.888717   -1.914010
H       1.935564   -0.152606   -2.618663
H       1.936205    1.106621   -1.309742
H       2.057382   -1.988675   -0.864019
H       2.478207    1.245003    0.828569
H       1.824845    0.775479    2.406828
H       3.167550   -0.132717    1.699835
H       0.564707   -3.448369    3.039055
