18

O       0.519486    1.287006   -0.552847
C       0.076936    0.079504   -0.027339
C       0.204609   -1.090381   -1.021067
O      -1.183660   -1.471944   -0.850444
C      -1.407350   -0.425577    0.111524
C      -1.066509   -0.868205    1.540675
C      -1.997978   -1.001165    2.681948
N      -1.362296   -2.187550    2.081069
C       0.351413   -0.276778    1.457554
H       0.465635    1.961860    0.131699
H       0.403003   -0.754190   -2.044511
H       0.898541   -1.893653   -0.748804
H      -2.324108    0.139246   -0.078067
H      -1.662346   -0.766764    3.689238
H      -3.054684   -0.816180    2.501215
H      -2.002256   -2.670838    1.453496
H       1.178005   -0.962438    1.660463
H       0.474573    0.620215    2.076785
