21

C       0.034458    1.569924   -0.095220
C      -0.015122    0.057792    0.139512
C      -1.428815   -0.534114    0.044351
C      -2.103733   -0.577702   -1.367741
N      -2.535897   -1.955252   -1.093452
C      -2.526919   -2.918432   -2.169881
C      -1.554671   -2.092619   -0.007694
C      -2.308516    0.047135    1.055121
N      -2.981093    0.522753    1.866805
H       1.062220    1.937075   -0.025773
H      -0.346012    1.830772   -1.088659
H      -0.566692    2.104843    0.645847
H       0.609601   -0.457530   -0.598687
H       0.400305   -0.181986    1.125489
H      -2.909640    0.132075   -1.574503
H      -1.337538   -0.499946   -2.158029
H      -1.541747   -3.005853   -2.667346
H      -2.803048   -3.905521   -1.785001
H      -3.266393   -2.635275   -2.926030
H      -0.599121   -2.543463   -0.324561
H      -1.917351   -2.605265    0.887899
