16

N       0.757093   -0.012294   -0.519018
C      -0.341523    0.617273   -0.041240
O      -0.396006    1.785330    0.296903
C      -1.569315   -0.279450    0.076633
O      -1.329752   -1.677271   -0.225971
C      -1.743838   -2.106347    1.098418
C      -1.982570   -0.654923    1.502372
C      -1.845849    0.075005    2.757366
O      -3.130653   -0.179772    2.150739
H       1.611229    0.504749   -0.642781
H       0.699603   -0.986441   -0.766551
H      -2.381705    0.146122   -0.523236
H      -2.651222   -2.719344    1.065197
H      -0.947869   -2.645438    1.624345
H      -1.656014   -0.467939    3.681741
H      -1.515541    1.110296    2.725132
