21

C       0.080293    1.184510    0.526161
O      -0.102032   -0.206663    0.336606
C      -1.351493   -0.536439   -0.216553
C      -1.383894   -2.065980   -0.421077
C      -2.447225   -2.538384    0.569044
C      -3.616606   -3.382164    0.132790
C      -2.560159   -3.954532    1.051549
C      -2.649653   -1.347630    1.490787
O      -2.422332   -0.215347    0.651754
H       1.077185    1.321993    0.950839
H       0.021599    1.728565   -0.429317
H      -0.669010    1.599498    1.209932
H      -1.518091    0.051426   -1.130384
H      -1.631914   -2.324838   -1.453324
H      -0.392961   -2.467221   -0.194374
H      -4.594097   -3.163682    0.551249
H      -3.639538   -3.729961   -0.895236
H      -1.872448   -4.690144    0.647228
H      -2.824222   -4.123047    2.091223
H      -3.660627   -1.267701    1.899351
H      -1.931088   -1.360120    2.324008
