14

O       0.570576   -0.172598   -0.025463
C       0.204831    0.968975   -0.073024
C       1.156449    2.163827    0.070234
O       2.454634    1.782190    0.442771
C       3.150200    1.575222   -0.762392
O       2.724613    2.614333   -1.636691
C       1.395156    2.942854   -1.281776
C       0.443918    2.587818   -2.349503
N      -0.315998    2.327900   -3.179983
H      -0.862601    1.246885   -0.209629
H       0.750848    2.835263    0.834854
H       4.221180    1.685908   -0.582125
H       2.915338    0.590840   -1.189037
H       1.333989    4.024124   -1.120198
