19

O      -0.489966    0.451067    0.560570
C       0.133660    0.885756   -0.372614
C       1.346570    1.779808   -0.267645
C       1.145042    3.105396   -1.032936
C       2.393271    3.930946   -1.057664
C       3.043634    4.744002    0.080660
C       3.666584    5.684726   -1.010744
C       2.990734    4.813600   -2.076974
O       3.472038    3.473549   -1.890087
H      -0.165925    0.647677   -1.421355
H       1.566244    1.952083    0.789576
H       2.197050    1.250400   -0.718772
H       0.845188    2.893199   -2.065906
H       0.335247    3.681085   -0.569134
H       2.316871    5.260866    0.712347
H       3.741757    4.185488    0.708133
H       3.267945    6.700796   -0.965301
H       4.756677    5.720939   -1.068337
H       2.655157    5.079109   -3.073632
