16

O      -0.398977    0.453863    0.730215
C       0.056840    1.120573   -0.166375
C       1.321615    1.913636   -0.054954
O       1.471777    2.932716   -1.050623
C       2.782381    2.439856   -1.442762
C       2.716587    1.296661   -0.404129
C       3.169941    1.601231    1.041069
N       3.039582    3.058117    1.245402
C       1.845724    2.200372    1.379088
H      -0.422811    1.182437   -1.167669
H       2.775938    2.105341   -2.485977
H       3.561704    3.187813   -1.281951
H       2.818356    0.266334   -0.738710
H       3.840620    1.004702    1.645796
H       3.364311    3.264108    2.189192
H       1.261437    2.162430    2.289070
