21

O       0.142330    1.241779   -0.085247
C      -0.010578   -0.121959    0.215118
C      -0.876925   -0.535402    1.387695
C      -1.394380   -0.657199   -0.036823
O      -2.341559    0.291437   -0.440232
C      -1.631268   -1.986406   -0.702918
C      -0.726675   -3.217384   -0.411110
C      -1.994079   -4.112514   -0.489800
C      -2.856927   -2.841596   -0.268857
H       0.535599    1.681966    0.674961
H       0.852002   -0.737932   -0.032896
H      -0.588123   -1.416823    1.950359
H      -1.323863    0.260015    1.975350
H      -1.858434    1.124509   -0.538622
H      -1.674552   -1.807660   -1.783067
H       0.091651   -3.419581   -1.106626
H      -0.320376   -3.199638    0.604922
H      -2.132429   -4.528330   -1.491947
H      -2.084565   -4.923541    0.236447
H      -3.085031   -2.687611    0.790461
H      -3.778374   -2.734739   -0.844438
