21

C      -0.177396    1.561996    0.030311
C       0.044915    0.051952    0.005170
C       0.896508   -0.491235   -1.196523
C       1.221817   -1.911144   -0.670763
C       1.955239   -1.387251    0.584208
C       2.906489   -0.386342   -0.057767
C       2.275048    0.148104   -1.110427
C       0.817306   -0.535432    1.248967
O       1.278554    0.415980    2.187556
H       0.765642    2.116620   -0.004642
H      -0.775360    1.876573   -0.831860
H      -0.703264    1.865351    0.939626
H      -0.936468   -0.433672   -0.044755
H       0.396508   -0.417637   -2.163540
H       0.329189   -2.504351   -0.443498
H       1.878321   -2.476571   -1.336892
H       2.404752   -2.118539    1.256019
H       3.879915   -0.115240    0.332128
H       2.628953    0.947515   -1.749589
H       0.156866   -1.189355    1.825227
H       1.929966    0.968612    1.740978
