17

C      -0.602163    1.176167   -0.009488
C       0.305749   -0.034097    0.012374
O       1.189978   -0.021397   -1.113358
C       2.472450   -0.331727   -0.667113
C       2.428650   -0.337858    0.816041
O       1.122009   -0.030905    1.188381
C       2.702385   -1.661402    0.076417
C       1.781861   -2.753168    0.044709
C       1.023647   -3.687263    0.018540
H      -0.006265    2.091879    0.012535
H      -1.212229    1.165198   -0.916559
H      -1.265718    1.157290    0.859082
H      -0.264785   -0.970587   -0.008330
H       3.255140    0.091411   -1.284438
H       3.173450    0.079974    1.481946
H       3.752700   -1.945117    0.106267
H       0.350802   -4.508205   -0.004316
