17

C       0.055141    1.575948    0.398830
C      -0.152344    0.380063   -0.526520
N      -1.545297   -0.049429   -0.509333
C      -1.874585   -1.035875   -1.230854
C      -3.260727   -1.657469   -1.373023
N      -3.126665   -2.773193   -2.323610
C      -1.897696   -2.790189   -2.663329
N      -1.088543   -1.821596   -2.083441
H       1.099607    1.903639    0.390312
H      -0.575309    2.413195    0.086002
H      -0.220020    1.315625    1.424908
H       0.156578    0.652674   -1.550431
H       0.511343   -0.444051   -0.212670
H      -3.634491   -2.019844   -0.409386
H      -3.988069   -0.926599   -1.742359
H      -1.464711   -3.500549   -3.360770
H      -0.104474   -1.702518   -2.246901
