19

C       0.163051    1.242347   -0.337769
N       0.062334    0.128844    0.582058
C      -1.105047   -0.819381    0.650730
C      -0.099749   -1.935504    1.086046
O      -0.219802   -2.133284    2.480938
C       0.373043   -3.167445    0.294215
C       1.902770   -2.834487    0.120590
N       1.997562   -1.343655    0.028252
C       0.927437   -0.949217    0.591993
H       1.143776    1.710135   -0.223662
H       0.053129    0.927041   -1.387188
H      -0.604759    1.985996   -0.107860
H      -1.856050   -0.550419    1.395696
H      -1.562562   -0.986701   -0.332076
H       0.616525   -2.479575    2.810942
H       0.171300   -4.106027    0.817053
H      -0.094839   -3.214694   -0.693921
H       2.507129   -3.224321    0.952264
H       2.311776   -3.268075   -0.795730
