9

O      -0.018551   -0.025363    0.003645
C      -0.007108    1.181612    0.009226
C      -1.259188    1.977718    0.030610
N      -1.337420    3.256854    0.038211
O      -0.108936    3.931335    0.024849
C       1.027276    3.213997    0.005736
N       1.171031    1.945736   -0.002703
H      -2.212390    1.455871    0.041059
H       1.881009    3.889644   -0.002338
