20

C      -0.017464    1.531553   -0.017323
C       0.012972    0.023251   -0.003428
C       0.008993   -0.698965   -1.196601
C       0.035082   -2.088571   -1.221371
C       0.067723   -2.807709   -0.023585
N       0.158476   -4.204621   -0.021109
C       0.070315   -2.089241    1.178871
C       0.044398   -0.697061    1.206261
C       0.048007    0.025747    2.531124
H       0.860716    1.966148    0.476543
H      -0.040363    1.911531   -1.042224
H      -0.896835    1.931439    0.503138
H      -0.017932   -0.158070   -2.138697
H       0.033909   -2.617573   -2.169989
H      -0.217617   -4.646440   -0.847987
H      -0.198847   -4.643525    0.815596
H       0.097585   -2.636596    2.118157
H       0.915867    0.689415    2.626321
H      -0.841003    0.656822    2.650291
H       0.072911   -0.677824    3.367162
