12

O      -0.121107   -0.017350   -0.001949
C      -0.026020    1.178690    0.006821
C       1.265540    1.946133   -0.000881
N       2.356958    1.243116   -0.018153
O       3.540141    1.916291   -0.025369
C       3.667107    3.324454   -0.015528
O       4.775888    3.773053   -0.023317
C       2.410383    4.055745    0.003902
C       1.245182    3.385057    0.010937
H      -0.921233    1.839782    0.021568
H       2.482069    5.136343    0.011916
H       0.288783    3.899325    0.025340
