14

C      -0.186794    1.897150   -0.034472
C       0.233588    0.428633   -0.034214
O       1.145924    0.268566    1.066242
C       1.833238   -0.893286    1.114879
N       2.651463   -1.095373    2.053023
C      -0.910785   -0.478577    0.080111
C      -1.850553   -1.221610    0.171193
H       0.698138    2.530833   -0.128391
H      -0.862406    2.092959   -0.870277
H      -0.699220    2.139326    0.899067
H       0.768653    0.206096   -0.968879
H       1.600457   -1.579429    0.290222
H       3.090104   -2.006954    1.939635
H      -2.680378   -1.879667    0.255121
