21

C      -0.153275    1.528936   -0.018861
C       0.037495    0.011079   -0.010625
C       0.981231   -0.529469   -1.126444
C       2.029441   -1.237916   -0.268577
C       1.308006   -1.957901    0.924527
C       2.523541   -1.651607    1.834953
O       3.705620   -2.402633    1.752111
C       2.328591   -0.362452    0.997758
C       0.786201   -0.515817    1.218683
H       0.809996    2.048381    0.039886
H      -0.653805    1.859968   -0.934968
H      -0.761652    1.858927    0.830412
H      -0.947662   -0.466751   -0.076429
H       0.477613   -1.214588   -1.816056
H       1.416879    0.278002   -1.725542
H       2.848638   -1.736442   -0.793343
H       0.709842   -2.870498    0.874512
H       2.306284   -1.561791    2.902859
H       3.941696   -2.510374    0.825261
H       2.911711    0.559932    1.035038
H       0.372428   -0.296986    2.206058
