20

C      -0.072499    1.544902   -0.119624
C       0.077612    0.046606    0.044426
C       1.330833   -0.753065   -0.183932
C       2.574486   -0.022790    0.337049
C       1.961584   -0.044799    1.788890
C       2.712275   -1.010646    2.718363
C       1.808578    1.248694    2.458105
N       1.702407    2.265915    2.998454
C       0.683769   -0.692205    1.208554
H       0.807723    2.104591    0.200645
H      -0.259900    1.789972   -1.170710
H      -0.918980    1.915260    0.467366
H      -0.794742   -0.497627   -0.316042
H       1.361563   -1.587651   -0.873612
H       3.487948   -0.618527    0.291878
H       2.777324    0.961795   -0.091070
H       3.707281   -0.626121    2.959857
H       2.164084   -1.155955    3.653918
H       2.820337   -1.982073    2.227298
H       0.136903   -1.457877    1.747568
