23

C       0.123729    1.492238    0.362305
C      -0.025658    0.060564   -0.171045
C      -1.437838   -0.492006   -0.080269
C      -1.909244   -1.066392    1.230613
C      -1.624938   -1.991635    0.066316
C      -2.782356   -2.695849   -0.638119
C      -3.505501   -1.755724   -1.608001
O      -3.696475   -0.469235   -1.041999
C      -2.471515    0.232531   -0.932389
H       1.168228    1.816508    0.322143
H      -0.463623    2.207367   -0.222500
H      -0.210358    1.560474    1.402938
H       0.311525    0.023559   -1.216480
H       0.646092   -0.602303    0.387944
H      -1.221440   -1.066662    2.070323
H      -2.951592   -0.920766    1.496640
H      -0.709950   -2.572184    0.142769
H      -2.413073   -3.563565   -1.196174
H      -3.494222   -3.078760    0.102460
H      -2.929855   -1.662052   -2.544382
H      -4.499855   -2.134741   -1.861422
H      -2.723181    1.207825   -0.502905
H      -2.051216    0.406995   -1.940082
