19

C      -0.037429    1.552943    0.006676
C      -0.031614    0.059111   -0.037163
C      -0.084619   -0.750283   -1.107266
C       0.100043   -2.180802   -0.652749
C       1.578390   -2.280720   -0.113163
C       1.246964   -1.863119    1.323580
O       0.270029   -2.892297    1.673838
C      -0.588150   -2.169185    0.768078
C       0.043681   -0.824025    1.177305
H       0.893154    1.944267    0.437807
H      -0.151707    1.982113   -0.992800
H      -0.853155    1.931683    0.635565
H      -0.111965   -0.436989   -2.145156
H      -0.198449   -2.965164   -1.346474
H       1.964453   -3.302396   -0.112753
H       2.265414   -1.620969   -0.646701
H       2.044504   -1.736670    2.054439
H      -1.650661   -2.402681    0.844954
H      -0.268116   -0.418630    2.139587
