16

O      -0.026461    1.441359    0.050829
C       0.028466    0.054966    0.043838
C       0.168514   -0.534200    1.479008
C      -1.363607   -0.756334    1.536427
C      -1.405999   -0.643955   -0.017565
C      -2.473889    0.104516   -0.648487
N      -3.325953    0.704601   -1.148744
C       0.983750   -0.435933   -1.019389
O       1.516402    0.320582   -1.792581
H       0.407469    1.734678   -0.766569
H       0.732701   -1.471458    1.489601
H       0.605552    0.162655    2.194144
H      -1.730565   -1.692187    1.959460
H      -1.881011    0.080454    2.006978
H      -1.330867   -1.633073   -0.480889
H       1.151607   -1.532274   -1.060043
