17

C      -0.053225    1.434117    0.029642
N       0.018486   -0.014125    0.039796
C      -1.049902   -0.683894    0.023944
O      -2.297686    0.015374   -0.003528
C      -3.440385   -0.677981   -0.021212
C      -3.473505   -2.020165   -0.014017
C      -2.196361   -2.701220    0.014426
C      -2.166667   -4.202670    0.024119
N      -1.069460   -2.062341    0.031984
H       0.961096    1.839551    0.046339
H      -0.563305    1.817843   -0.864791
H      -0.596669    1.828612    0.899400
H      -4.311201   -0.030533   -0.041537
H      -4.411352   -2.557625   -0.028740
H      -2.672421   -4.601321   -0.863204
H      -1.136204   -4.556939    0.045327
H      -2.704871   -4.590534    0.897024
