22

C       0.783730   -0.366457   -1.432930
C       0.056490   -0.129940   -0.101896
C      -1.410350   -0.495022   -0.109211
N      -2.097415   -0.853360    1.154428
C      -1.930630   -1.867165    0.089605
C      -3.169965   -1.999756   -0.766989
O      -3.533603   -0.671107   -1.117197
C      -2.389444    0.186925   -1.065589
C      -2.851097    1.573198   -0.643049
H       1.848688   -0.135553   -1.334633
H       0.693089   -1.409867   -1.751669
H       0.383888    0.262478   -2.233563
H       0.549961   -0.715385    0.684675
H       0.165463    0.922339    0.193017
H      -1.393741   -1.014029    1.873007
H      -1.279658   -2.720931    0.249700
H      -2.942063   -2.607954   -1.658445
H      -4.021446   -2.449844   -0.245510
H      -1.922228    0.236015   -2.063444
H      -3.243249    1.535287    0.375808
H      -2.021333    2.287017   -0.682950
H      -3.638449    1.929112   -1.312840
