18

O      -0.166296   -0.032894    0.024746
C      -0.043836    1.179431    0.027808
C       1.208253    1.895405   -0.003993
C       1.246963    3.256237    0.014894
N       2.450940    3.882707   -0.068240
C       3.639773    3.024751   -0.077448
C       3.426272    1.905031   -1.136576
C       2.553324    1.201881   -0.046294
C       3.491173    1.901564    0.992253
H      -0.942358    1.841409    0.061489
H       0.359881    3.879352    0.072373
H       2.539316    4.850307    0.189670
H       4.534793    3.646603   -0.108156
H       2.953307    2.182207   -2.080667
H       4.358847    1.368074   -1.320402
H       2.453580    0.118113   -0.044090
H       4.431586    1.360686    1.114529
H       3.077234    2.171946    1.966113
