20

C      -0.090405    1.359725    0.026113
O      -0.022239   -0.044477   -0.004622
C       0.632255   -0.535597   -1.155716
C       0.611879   -2.057247   -1.099195
C       1.354861   -2.709919   -2.267134
C       1.327534   -4.263957   -2.229863
O       0.742620   -4.642474   -3.500242
C       0.451426   -3.475103   -4.119878
N       0.734090   -2.371566   -3.567992
H       0.911415    1.819190    0.032676
H      -0.643021    1.762705   -0.837650
H      -0.613283    1.643581    0.942967
H       0.134328   -0.183449   -2.071491
H       1.673417   -0.167348   -1.191350
H       1.066645   -2.381292   -0.154987
H      -0.428749   -2.402393   -1.090910
H       2.387941   -2.339958   -2.280489
H       2.317031   -4.722038   -2.161285
H       0.692419   -4.660355   -1.431304
H      -0.021532   -3.592423   -5.088929
