19

C      -0.071352    1.569010    0.052640
C       0.100324    0.063641    0.056687
C       1.336834   -0.675605   -0.257320
O       1.310147   -1.618083   -1.253908
C       2.607824   -0.042527    0.307916
C       1.982513   -0.030501    1.738725
C       0.717809   -0.712771    1.221988
C       0.041185   -1.827785    1.872466
O       0.348282   -2.283700    2.954003
H       0.812261    2.090340    0.428705
H      -0.260529    1.927194   -0.964632
H      -0.921611    1.861660    0.676751
H      -0.761520   -0.473443   -0.339821
H       2.024727   -2.248337   -1.104588
H       3.459772   -0.726374    0.246217
H       2.905297    0.914816   -0.132263
H       2.516667   -0.664791    2.446976
H       1.843727    0.955698    2.189924
H      -0.790953   -2.271503    1.278089
