18

O      -0.214414    0.945247   -0.790570
C      -0.196218   -0.187125    0.040531
C       0.259361    0.044792    1.505072
C      -0.546387   -0.973942    2.268554
C      -1.541222   -1.489011    1.545152
C      -1.582840   -0.890767    0.167333
O      -2.630210    0.098111    0.108832
C      -3.286885    0.246792   -1.061407
N      -4.067550    1.224522   -1.222645
H      -0.926665    1.517360   -0.478270
H       0.494843   -0.893272   -0.431146
H       1.340776   -0.075491    1.625865
H       0.019174    1.065481    1.831738
H      -0.332165   -1.235927    3.299132
H      -2.272545   -2.210630    1.888447
H      -1.750804   -1.620761   -0.633401
H      -3.073769   -0.549592   -1.787201
H      -4.502978    1.173876   -2.141219
