19

O      -0.045704    1.403666   -0.070481
C       0.043806   -0.006473   -0.014210
C       0.326006   -0.595464    1.413294
C      -1.099558   -1.220603    1.429065
C      -1.383556   -0.621771    0.021229
C      -1.620211   -2.042354   -0.533147
C      -0.425252   -2.951784   -0.309125
C      -1.331471   -2.636797    0.842509
O      -2.046620   -3.618010    1.508105
H       0.840187    1.763365    0.042618
H       0.696178   -0.387815   -0.811671
H       1.168845   -1.287019    1.504820
H       0.443044    0.208128    2.145052
H      -1.751855   -1.000137    2.273431
H      -2.189904    0.092045   -0.141447
H      -2.379621   -2.306988   -1.258918
H      -0.574003   -3.951476   -0.706413
H       0.599934   -2.599392   -0.377097
H      -1.421243   -4.200882    1.952838
