18

C       0.063673   -1.189578   -0.068992
C       0.031003    0.012944   -0.020150
C      -0.032302    1.431173    0.060316
C      -1.206902    2.266514    0.573263
N      -0.821217    3.395205   -0.348276
C       0.014786    4.361353    0.396237
C       1.241526    3.561046    0.930487
C       1.220839    2.330941    0.028049
C       0.162025    2.494555   -1.015622
H       0.095016   -2.249612   -0.116557
H      -2.172279    1.845668    0.281982
H      -1.227970    2.521961    1.639023
H       0.338720    5.140624   -0.301491
H      -0.575314    4.837126    1.184207
H       2.178087    4.115686    0.819611
H       1.141504    3.302160    1.989228
H       2.136539    1.810781   -0.226190
H       0.257782    2.416384   -2.090683
