16

O       0.972985    1.515690   -0.414096
C       0.014680    0.596703    0.083973
C      -0.128514   -0.638670   -0.832356
C      -0.403283   -0.286405   -2.218031
C      -0.647107   -0.001323   -3.359260
C       0.375994    0.247179    1.516435
C       0.186562   -1.057525    2.160490
O       1.474918   -0.662065    1.681514
H       1.835982    1.087337   -0.360531
H      -0.933091    1.147046    0.087045
H       0.793731   -1.229551   -0.762783
H      -0.937421   -1.276518   -0.455165
H      -0.853996    0.253852   -4.368764
H       0.439498    1.125876    2.159508
H       0.087624   -1.102990    3.244013
H      -0.277690   -1.880742    1.622485
