19

C       0.423643    0.783012    0.662724
C      -0.551314    0.093584   -0.267490
O      -1.751189    0.186066   -0.139536
C       0.041289   -0.768734   -1.386159
C       0.150136   -2.238659   -0.957743
C      -1.148792   -3.021405   -0.820993
C      -0.236088   -3.306593   -1.975805
C       1.222808   -2.548452   -0.050410
C       2.128410   -2.797901    0.702587
H       1.116511    0.047175    1.085684
H       1.030834    1.501392    0.098945
H      -0.114756    1.300172    1.457723
H      -0.640636   -0.701004   -2.237934
H       1.026294   -0.402967   -1.692679
H      -1.207257   -3.750463   -0.022131
H      -2.059627   -2.460799   -0.995817
H      -0.520230   -2.961517   -2.963922
H       0.334378   -4.227572   -1.963367
H       2.923739   -3.029206    1.366947
