16

C      -0.052719    1.446857    0.078599
N      -0.014038   -0.009276   -0.003135
N      -1.178151   -0.647451    0.098657
C      -1.157357   -1.952922    0.026860
C      -2.454787   -2.699791    0.138451
C       0.097206   -2.620457   -0.154923
N       1.237419   -2.012749   -0.255516
C       1.247596   -0.622269   -0.182695
O       2.242889    0.064075   -0.262084
H       0.561711    1.787502    0.915515
H       0.358247    1.880564   -0.836288
H      -1.092007    1.740443    0.214873
H      -2.647850   -3.297059   -0.759725
H      -2.444028   -3.389752    0.989664
H      -3.277319   -1.995452    0.271610
H       0.108050   -3.710466   -0.214217
