19

C      -0.143713    1.529187   -0.039353
C       0.057644    0.038204    0.065121
O      -1.083698   -0.709790   -0.306185
C       1.387838   -0.680184   -0.237087
C       2.650237    0.094828   -0.107521
C       2.843145    0.530248    1.142387
C       1.738550    0.090010    2.076008
C       0.775286   -0.678446    1.175797
O       0.173980   -1.775949    1.773601
H       0.761272    2.075903    0.231182
H      -0.407009    1.807035   -1.067530
H      -0.960413    1.850337    0.615105
H      -1.139397   -0.728278   -1.267628
H       1.324115   -1.549707   -0.884554
H       3.316349    0.281558   -0.942916
H       3.677053    1.138010    1.473864
H       2.105052   -0.574908    2.868693
H       1.251356    0.934716    2.579173
H      -0.618316   -1.963010    1.251409
