23

C       0.522494    1.408377   -0.379919
C       0.061437    0.015947    0.044093
C       0.184386   -1.053031   -1.063994
C       1.513696   -1.748332   -0.740226
O       2.630022   -1.034342   -1.261424
C       1.550398   -1.676755    0.803658
C       0.767873   -2.848328    1.420124
C       2.958629   -1.604905    1.390524
O       0.883931   -0.442991    1.123066
H       1.533769    1.358076   -0.791752
H      -0.151255    1.827117   -1.135945
H       0.529622    2.080304    0.482997
H      -0.974434    0.074347    0.405276
H      -0.640450   -1.769618   -1.014239
H       0.182124   -0.621515   -2.069548
H       1.535380   -2.791007   -1.086299
H       2.537052   -1.002982   -2.218392
H       1.291684   -3.798062    1.269884
H       0.655664   -2.682034    2.494913
H      -0.233782   -2.938693    0.989073
H       3.503100   -0.758610    0.972905
H       2.895756   -1.486366    2.476135
H       3.517443   -2.520850    1.175179
