18

C       0.094088    1.393499   -0.173342
O       0.979521    0.298270   -0.422317
C      -0.326332    0.011287    0.083263
C      -0.406107   -0.570337    1.476447
C      -1.876978   -0.548004    1.989293
C      -2.338007   -1.973946    1.803615
C      -1.328946   -2.795698    1.521291
C      -0.003746   -2.075479    1.467774
H       0.369246    2.033502    0.664628
H      -0.261094    1.919216   -1.058809
H      -0.986799   -0.461753   -0.647717
H       0.257790    0.011801    2.121087
H      -1.932722   -0.249820    3.044893
H      -2.491815    0.174712    1.437753
H      -3.374243   -2.270496    1.923730
H      -1.416691   -3.866643    1.374146
H       0.594468   -2.329255    0.585032
H       0.615917   -2.331692    2.337751
