16

C      -0.015625    1.504483   -0.030753
C       1.403479    2.104241    0.055130
C       2.192454    1.551872    1.222475
O       1.453510    1.270660    2.412773
C       1.962470    0.164021    1.668485
C       0.966143   -0.683224    0.920392
O      -0.403473   -0.601751    1.300733
C      -0.016739   -0.015826    0.050580
H      -0.619031    1.885554    0.797108
H      -0.489723    1.829461   -0.961382
H       1.968213    1.897787   -0.864195
H       1.335378    3.194785    0.139452
H       3.174558    1.993944    1.393323
H       2.768830   -0.377029    2.162431
H       1.315695   -1.686251    0.674107
H      -0.389795   -0.557652   -0.817766
