19

C       0.098793    1.534360   -0.297497
C       0.057261    0.044905   -0.061719
N       1.361718   -0.651231    0.031393
C       0.501884   -0.580963    1.200308
C       0.924809    0.063644    2.533629
N       0.267461   -1.068395    3.200516
C      -0.138389   -1.750853    1.970585
C      -0.061122   -1.337950    4.481469
O      -0.713803   -2.299446    4.834758
H       0.929201    1.988916    0.249498
H       0.237833    1.754853   -1.360861
H      -0.834204    2.007780    0.026924
H      -0.740861   -0.481440   -0.585473
H       1.316145   -1.574351   -0.394021
H       2.008649    0.111357    2.685698
H       0.479659    1.040538    2.755185
H      -1.222402   -1.871187    1.867656
H       0.343206   -2.726613    1.831163
H       0.340477   -0.576366    5.181417
