18

C       0.036919   -1.147312    0.012848
C       0.016185    0.054943   -0.013094
C      -0.057836    1.490009   -0.042210
C       0.418678    2.242429   -1.243512
N       1.220686    2.269286   -0.023295
C       1.035574    3.393030    0.891740
C       0.061090    4.514210    0.620094
C      -0.344989    3.361789    1.506064
C      -1.080754    2.171332    0.889132
H       0.072022   -2.208209    0.034877
H       0.869039    1.690160   -2.063434
H      -0.137977    3.122479   -1.549890
H       1.919662    3.605355    1.481328
H       0.273047    5.459717    1.108622
H      -0.395777    4.628924   -0.355861
H      -0.497132    3.553261    2.562243
H      -1.991260    2.456423    0.351836
H      -1.373602    1.467528    1.671609
