21

C      -0.036528    1.557958    0.086003
C       1.516479    1.456435    0.034001
C       1.304565    0.159603    0.884529
C      -0.004796    0.001727    0.041482
C       0.345095   -0.512358   -1.430414
C       1.883942   -0.459024   -1.592173
C       2.006839    1.076675   -1.438587
C       0.957320    1.472342   -2.482733
C      -0.008621    0.548663   -2.477986
H      -0.365986    1.907546    1.068428
H      -0.566587    2.108294   -0.687417
H       2.106766    2.273878    0.453745
H       2.057353   -0.627546    0.901383
H       1.063560    0.416961    1.919610
H      -0.845641   -0.549338    0.468265
H      -0.101685   -1.492395   -1.610234
H       2.453373   -1.050841   -0.877986
H       2.176594   -0.770241   -2.597886
H       3.004931    1.478286   -1.625513
H       0.973231    2.393219   -3.053379
H      -0.932208    0.571149   -3.044013
