18

O       0.059162    1.385527    0.265810
C       0.055133    0.002015   -0.049376
C      -1.328896   -0.554093   -0.150191
N      -2.105153   -0.917424    1.066212
C      -1.884785   -1.934995    0.016027
C      -2.938066   -1.695188   -1.091491
C      -4.238217   -0.956869   -0.693348
O      -3.610240    0.339312   -0.887673
C      -2.371817   -0.270654   -1.272767
H      -0.562499    1.523146    0.988827
H       0.573673   -0.083593   -1.011121
H       0.633102   -0.588092    0.684143
H      -1.424418   -1.105937    1.803381
H      -1.379875   -2.865315    0.248062
H      -2.969053   -2.424716   -1.898098
H      -5.068213   -1.097324   -1.395476
H      -4.579403   -1.096094    0.335573
H      -1.955055    0.121285   -2.204439
