21

C      -0.241513    1.570538    0.022926
C      -0.003901    0.067183   -0.145840
O       0.686426   -0.207308   -1.362251
C       0.734952   -0.525285    1.064185
C       0.890700   -2.077055    1.311240
C       0.589732   -2.988162    0.124819
C       2.417069   -1.867826    1.593781
C       2.266302   -0.459571    1.015899
O       3.027884    0.324746    0.515710
H       0.710444    2.091384    0.173739
H      -0.720006    1.974078   -0.873339
H      -0.883294    1.778775    0.885460
H      -0.969460   -0.441710   -0.253786
H       1.532979    0.255203   -1.313764
H       0.378247   -0.047657    1.984917
H       0.334962   -2.414764    2.189191
H       1.103513   -2.652466   -0.779147
H       0.899275   -4.014931    0.346623
H      -0.482200   -3.005305   -0.097813
H       2.669218   -1.851434    2.658872
H       3.125566   -2.519513    1.074830
