17

C       0.000841    1.536197    0.065567
C      -0.077540    0.004486   -0.030056
O       0.445623   -0.603609    1.160909
C      -1.548283   -0.481165   -0.060665
O      -2.229975   -0.105041    1.112813
C       0.634023   -0.484990   -1.213962
C       1.224746   -0.893546   -2.188899
C       1.889327   -1.348012   -3.285624
C       2.479740   -1.751613   -4.258512
H       1.036574    1.860379    0.207068
H      -0.375699    2.001109   -0.849683
H      -0.605276    1.868996    0.910419
H       1.355306   -0.309512    1.276554
H      -2.069013   -0.023536   -0.905767
H      -1.544028   -1.570929   -0.202696
H      -1.701571   -0.443735    1.846088
H       2.997658   -2.106053   -5.114978
