10

F      -0.009997    0.041809    0.004757
C      -0.017894    1.364480    0.011187
C      -1.184528    2.041474    0.029655
O      -1.276101    3.380508    0.037077
N      -0.141643    4.162323    0.025607
C       0.983743    3.542246    0.007915
F       2.048298    4.308323   -0.002720
C       1.244337    2.076296   -0.001805
O       2.358515    1.596677   -0.019496
H      -2.159427    1.569848    0.040205
