20

C       0.300093    1.464246   -0.188877
C      -0.177343    0.028546    0.074420
C       0.413158   -0.551297    1.322552
C       0.090346   -0.206227    2.789558
C       0.563831   -1.647490    3.184574
C       0.862815   -1.910809    1.697624
C       0.887417   -3.218184    0.974595
O       1.811809   -0.902346    1.302903
H       1.389041    1.493673   -0.287429
H      -0.138773    1.860172   -1.109374
H       0.018505    2.132900    0.631216
H      -1.271503    0.007741    0.157051
H       0.091936   -0.612171   -0.772798
H       0.659386    0.628703    3.205334
H      -0.975760   -0.048540    2.973447
H       1.430049   -1.717563    3.847266
H      -0.248273   -2.263480    3.579756
H      -0.016606   -3.798134    1.187498
H       0.959373   -3.062798   -0.105195
H       1.751091   -3.816474    1.287543
