15

C       0.040129    1.409578   -0.092925
O       0.004525    0.002542   -0.003196
C       0.620386   -0.624599   -1.080738
C       0.544618   -2.137370   -0.919358
O       0.021096   -2.692232    0.016933
C       1.166488   -2.873879   -2.006161
C       1.680041   -3.509273   -2.902860
C       2.256415   -4.213987   -3.909981
C       2.768862   -4.840814   -4.805948
H       1.072857    1.791193   -0.113471
H      -0.480590    1.774458   -0.991975
H      -0.465002    1.799898    0.792865
H       0.149745   -0.362383   -2.047027
H       1.686894   -0.346746   -1.177581
H       3.219615   -5.393082   -5.593589
