17

C      -0.658929    1.295242   -0.103579
C       0.200661    0.049933    0.045864
C       1.485252   -0.073784   -0.835168
C       2.209928   -0.592808    0.406876
C       3.040428   -1.789052    0.551299
O       3.595745   -0.468837    0.658795
C       1.094374   -0.084895    1.320539
H      -0.056137    2.203418    0.010405
H      -1.136303    1.333642   -1.089066
H      -1.451981    1.324663    0.651901
H      -0.415829   -0.847269   -0.070544
H       1.446704   -0.719538   -1.715918
H       1.868052    0.908668   -1.132003
H       3.015001   -2.360367    1.478953
H       3.343347   -2.351035   -0.331880
H       1.346810    0.893851    1.742666
H       0.750225   -0.739337    2.125195
