15

C      -0.207519   -1.085208    0.062576
C      -0.047744    0.103249    0.012791
C       0.118735    1.561197   -0.024593
C       1.535921    1.942617   -0.053418
C       2.688313    2.277893   -0.058190
N      -0.577682    2.118533   -1.198978
C      -2.004332    2.371049   -1.009127
C      -1.033374    3.498822   -1.049693
H      -0.337572   -2.138636    0.098952
H      -0.313899    1.967357    0.911476
H       3.711002    2.564131   -0.069326
H      -2.633624    2.146795   -1.864644
H      -2.443567    2.124600   -0.044060
H      -0.821091    4.009112   -0.111845
H      -0.936092    4.118478   -1.935564
