14

O      -0.048215   -0.041822   -0.000413
C      -0.033368    1.147316    0.002553
O      -1.168203    1.922035    0.078309
C      -0.725754    3.268718    0.249612
C       0.049956    3.511825    1.551026
C       1.260851    4.039521    0.789382
C       1.298463    2.647040    1.321580
N       1.133483    2.011235   -0.030583
C       0.638332    3.366392   -0.467771
H      -1.520440    3.963727   -0.009615
H      -0.319083    3.772594    2.532546
H       1.905132    4.891404    0.933529
H       1.884584    2.194275    2.108210
H       0.751585    3.624832   -1.517480
