21

C      -0.060730    1.481904    0.053226
C       0.009636   -0.013054   -0.034746
C      -0.026020   -0.713050   -1.171775
C       0.028095   -2.218512   -1.039822
C       1.215377   -2.617709   -0.134510
C       0.178178   -2.314631    0.977178
C       0.123387   -3.178954    2.214016
C       0.111308   -0.799862    1.262590
O      -0.888520   -2.626141    0.024433
H       0.823551    1.893222    0.557507
H      -0.133037    1.940506   -0.936740
H      -0.929821    1.803023    0.642321
H      -0.091266   -0.243017   -2.148068
H      -0.153248   -2.761369   -1.969345
H       1.436872   -3.686240   -0.182981
H       2.130465   -2.024879   -0.188834
H       0.981112   -2.975762    2.864489
H      -0.790272   -2.977109    2.783812
H       0.132258   -4.237739    1.941776
H       0.994653   -0.481274    1.834529
H      -0.759026   -0.586790    1.899488
