20

C      -0.007789    1.383532    0.026802
O       0.072969   -0.042319    0.042227
C       0.588771   -0.598057   -1.087431
C      -0.027116   -0.955895   -2.266661
C      -1.476160   -0.767697   -2.598341
C       0.990315   -1.551604   -3.071583
C       2.163932   -1.537998   -2.357814
N       1.922097   -0.952970   -1.136863
C       2.887470   -0.741076   -0.080844
H       0.986663    1.839698   -0.060295
H      -0.631748    1.733719   -0.803285
H      -0.460368    1.681695    0.975260
H      -1.631835   -0.004275   -3.371023
H      -1.926337   -1.694618   -2.971374
H      -2.038196   -0.462674   -1.710637
H       0.860362   -1.959551   -4.063092
H       3.148799   -1.902456   -2.603550
H       3.525407    0.129050   -0.277948
H       2.350939   -0.578993    0.855157
H       3.525629   -1.622415    0.027092
