16

O      -0.250224    1.426552   -0.018619
C      -0.059003    0.044018    0.011026
C      -0.432104   -0.719618    1.254029
C      -1.342042   -0.760753    0.030722
N      -2.601296   -0.088589    0.020293
C      -3.513045   -0.737632   -0.806929
O      -4.615287   -0.333847   -1.108785
C      -2.827367   -1.997059   -1.221271
C      -1.571933   -1.990049   -0.758806
H       0.404085    1.835401    0.558207
H       0.763928   -0.325146   -0.600145
H       0.126328   -1.613957    1.508810
H      -0.798971   -0.142024    2.095544
H      -2.653935    0.908514    0.157821
H      -3.315278   -2.749231   -1.823757
H      -0.813464   -2.751798   -0.885145
