11

N       0.011623    1.340792    0.061220
C      -0.048626   -0.002481    0.020152
N      -1.178757   -0.633234    0.014412
C      -1.127962   -2.012583   -0.003748
O      -2.100102   -2.736234   -0.011475
C       0.246391   -2.592681   -0.017157
N       1.341481   -1.935703   -0.016807
O       1.197830   -0.533858    0.002012
H       0.891851    1.814322   -0.041178
H      -0.852284    1.849797   -0.009961
H       0.356778   -3.673142   -0.031319
