15

O       0.096974    1.465241    0.092102
C       0.084568    0.063199    0.046190
C      -1.333509   -0.596169    0.124803
C      -2.506656    0.394471    0.133648
C      -3.764885   -0.274346   -0.185930
N      -4.737972   -0.837463   -0.453473
N      -1.039222   -1.200076   -1.178985
C       0.164091   -0.569644   -1.369312
O       0.940213   -0.500788   -2.283481
H       0.727665    1.771171   -0.570386
H       0.794380   -0.376916    0.758035
H      -1.451602   -1.331720    0.925866
H      -2.582640    0.863766    1.120283
H      -2.320055    1.194451   -0.587663
H      -1.597186   -1.792130   -1.778752
