17

C       0.028114    1.500666    0.059517
C       0.010758    0.008600   -0.005597
C      -0.020325   -0.794313   -1.070759
C      -0.073069   -2.249729   -0.674108
N       0.008679   -2.274167    0.807140
C       1.245982   -1.738597    1.360378
C       0.044093   -0.848115    1.233016
C      -0.712689   -0.446504    2.394059
N      -1.301903   -0.078945    3.318515
H       0.943610    1.867409    0.539452
H      -0.038075    1.940517   -0.938051
H      -0.810068    1.874752    0.658789
H       0.001138   -0.463235   -2.102593
H      -1.010745   -2.728231   -0.983638
H       0.744815   -2.845878   -1.097361
H       1.515557   -2.143536    2.331500
H       2.075449   -1.512786    0.693274
