19

C      -0.207854    1.290220   -0.031645
O       0.090048   -0.085505   -0.061935
C       0.715172   -0.561905    1.111123
C      -0.218699   -0.835038    2.278137
C      -0.062576   -2.058384    2.781962
C       0.958226   -2.868240    2.028900
C       0.374802   -3.781639    0.924078
O       0.601327   -2.766976   -0.075614
C       1.347619   -1.946950    0.846300
H       0.694618    1.900105    0.135856
H      -0.631892    1.548095   -1.005182
H      -0.942320    1.546431    0.747088
H       1.503524    0.152096    1.413263
H      -0.914565   -0.091436    2.650140
H      -0.616600   -2.463187    3.622736
H       1.746645   -3.297449    2.650785
H       0.962612   -4.687355    0.722973
H      -0.684923   -4.046931    1.013220
H       2.402392   -1.885241    0.558330
