21

C       0.188670    1.562854   -0.038691
C       0.051235    0.033446    0.026159
C       0.654540   -0.604994   -1.232480
C       0.690961   -0.504379    1.327204
C       0.903687   -2.045016    1.474519
C       2.401245   -1.697711    1.522397
O       2.136267   -0.292391    1.329320
C       0.064495    0.086012    2.510717
C      -0.461994    0.534896    3.494372
H       1.245656    1.847191   -0.042462
H      -0.271515    1.949519   -0.952919
H      -0.289741    2.045199    0.816845
H      -1.015591   -0.223326    0.080597
H       1.734644   -0.434644   -1.267328
H       0.472333   -1.681705   -1.292547
H       0.213802   -0.152782   -2.125973
H       0.486457   -2.469694    2.386511
H       0.583901   -2.636734    0.617778
H       2.895126   -1.888780    2.482338
H       3.018382   -2.107300    0.714698
H      -0.919311    0.942124    4.362304
