18

C       0.225390    1.435074    0.156368
N      -0.051605    0.027626   -0.129171
C      -1.434536   -0.431536    0.073183
C      -2.343399   -0.169988   -1.160016
O      -1.740972   -0.663742   -2.337958
C      -1.247636   -1.950978    0.290694
O      -1.601826   -2.795678   -0.493645
C      -2.045927    0.104855    1.283355
C      -2.606326    0.489035    2.275225
H       1.265464    1.639104   -0.111794
H      -0.414984    2.145788   -0.389871
H       0.106915    1.626615    1.225356
H       0.156657   -0.173532   -1.104124
H      -3.332724   -0.612122   -0.983655
H      -2.471001    0.908659   -1.287601
H      -1.758998   -1.627126   -2.255458
H      -0.696629   -2.197321    1.218424
H      -3.093316    0.844648    3.150081
