17

C      -0.020652    1.512460   -0.033455
N       1.332893    2.092557   -0.023774
C       2.256212    1.388572   -0.818137
C       3.429001    1.764460   -1.422907
C       3.987473    0.595573   -2.028288
C       3.140564   -0.453162   -1.781578
N       2.079316    0.026511   -1.036737
C       1.007310   -0.670375   -0.479583
C      -0.019273    0.001690    0.046147
H      -0.582256    1.951572    0.795729
H      -0.525197    1.835508   -0.956814
H       1.671998    2.193369    0.927620
H       3.838623    2.762294   -1.428329
H       4.899610    0.545707   -2.602785
H       3.165165   -1.483966   -2.097252
H       1.093825   -1.750163   -0.494096
H      -0.848080   -0.525637    0.502214
