16

C       0.617885    1.302092   -0.170452
C      -0.070547   -0.042428   -0.054074
O       0.240053   -0.904638   -1.136970
C       1.105439   -1.914758   -0.689223
C       2.563856   -1.718141   -1.125211
O       2.984646   -0.709064   -1.619762
C       1.030485   -1.847758    0.826834
N       1.550631   -2.679215    1.617382
O       0.341230   -0.724612    1.142833
H       1.696812    1.166624   -0.268550
H       0.250011    1.816766   -1.062080
H       0.395833    1.914470    0.707736
H      -1.160698    0.063356   -0.007354
H       0.765874   -2.894016   -1.047763
H       3.204936   -2.600421   -0.918023
H       1.395789   -2.415606    2.591059
