16

O      -0.002990   -0.018217    0.584091
C      -0.064071    1.048802    0.006507
C      -1.409461    1.716705   -0.240719
C      -1.509433    2.483876   -1.562099
N      -0.840258    3.772148   -1.531095
C       0.484861    4.020369   -1.328220
O       0.944690    5.149642   -1.396152
C       1.407572    2.884588   -1.018922
C       1.196654    1.686534   -0.455043
H      -2.160792    0.923810   -0.194230
H      -1.611380    2.405254    0.590055
H      -1.126750    1.864342   -2.385014
H      -2.561278    2.681523   -1.781120
H      -1.369253    4.598580   -1.765735
H       2.432024    3.174404   -1.234061
H       2.057553    1.053401   -0.255367
