16

O      -0.015737    0.039756   -0.044450
C      -0.020712    1.240107    0.004619
C      -1.213023    2.155362   -0.003660
C      -1.027437    3.351062    0.901055
C       0.131184    3.359153    1.830291
C       1.260460    2.777168    1.414337
C       1.195484    2.195028    0.024008
C       0.643457    3.310663   -0.909818
N      -0.789663    3.454931   -0.561411
H      -2.195818    1.765476   -0.238927
H      -1.930878    3.863147    1.215599
H       0.030069    3.857900    2.787173
H       2.174248    2.744098    1.995055
H       2.108325    1.707413   -0.311008
H       1.157717    4.265869   -0.783646
H       0.696304    3.008996   -1.959834
