14

C      -0.075261    1.482356   -0.032060
O       1.121811    0.667262   -0.004022
C      -0.137672    0.028881    0.020109
C      -0.495732   -0.992833    1.071491
C      -1.634403   -1.791284    0.411600
O      -1.952751   -1.174754   -0.840482
C      -0.515538   -1.027988   -1.029461
C      -0.231942   -2.129348    0.066882
H      -0.253576    2.066964    0.869107
H      -0.258432    2.005031   -0.969588
H      -0.313328   -0.973069    2.137302
H      -2.408098   -2.319959    0.952395
H      -0.192827   -0.983660   -2.066941
H       0.375762   -3.020921    0.114589
