10

O      -0.044356    0.074396   -0.028740
C       0.045079    1.255096    0.036715
O      -0.989475    2.173409    0.215296
C      -0.057551    3.269499    0.005951
C       0.933908    3.283137    1.105603
C       1.107673    2.317259   -0.080356
H      -0.374406    4.075816   -0.638806
H       1.647244    4.101807    1.108387
H       0.653285    2.903579    2.082559
H       1.985913    2.295003   -0.707516
