17

N      -0.087565    1.514659    0.204872
C      -0.049878    0.077870    0.014644
C       0.858522   -0.514855    0.999351
N       1.585427   -0.996608    1.757605
C      -1.403104   -0.654587    0.001873
C      -2.213626   -0.281890   -1.205240
C      -1.103048   -1.277979   -1.367233
C       0.238359   -0.542375   -1.431962
O       0.389396    0.486407   -2.382141
H       0.858206    1.884886    0.237374
H      -0.527793    1.939643   -0.605304
H      -1.847195   -1.112203    0.876129
H      -3.216328   -0.695705   -1.212751
H      -2.135988    0.697124   -1.666748
H      -1.267652   -2.297415   -1.691285
H       1.099455   -1.219670   -1.426606
H       0.377701    0.094351   -3.261748
