18

C       0.314978    0.847686   -1.030748
C      -0.076795    0.204275    0.286060
O       0.550377    0.361681    1.313063
C      -1.277345   -0.652010    0.261646
C      -1.797132   -1.678830   -0.702988
C      -2.140419   -2.635491    0.439253
C      -2.168698   -1.370678    1.339771
C      -3.325752   -0.568259    0.723870
N      -2.528523   -0.393746   -0.541707
H       1.076630    1.606604   -0.848223
H       0.724833    0.088521   -1.707273
H      -0.559167    1.282428   -1.523176
H      -1.439836   -1.902841   -1.699872
H      -3.056906   -3.230821    0.369269
H      -1.289752   -3.281926    0.665852
H      -1.986281   -1.428068    2.408977
H      -4.291876   -1.068584    0.591816
H      -3.469038    0.416305    1.173611
