17

O       0.473801    0.760478   -0.030667
C      -0.323510   -0.281604   -0.552830
C      -1.670292   -0.373043    0.176751
O      -1.363731   -0.553169    1.553798
C      -2.330101   -1.266978    2.308760
C      -3.626034   -0.595283    2.416712
C      -4.691862   -0.044667    2.490038
C      -2.473974    0.909411   -0.056538
O      -3.034494    1.142270   -1.094494
H       0.562541    0.589640    0.914125
H      -0.505128   -0.057230   -1.607603
H       0.180169   -1.257566   -0.482746
H      -2.242334   -1.221024   -0.225798
H      -2.476580   -2.272061    1.883108
H      -1.890222   -1.394555    3.303162
H      -5.633607    0.443078    2.555631
H      -2.465922    1.618290    0.796892
