16

O      -0.258280    0.056289    0.156475
C      -0.033116    1.225368   -0.065385
C       1.270441    1.858159   -0.008552
C       1.681070    3.239256    0.531255
C       2.821039    2.598502    1.326003
C       2.750163    1.427348    0.307102
C       3.175393    2.082892   -1.036131
C       1.899407    2.920445   -0.926922
H      -0.852487    1.931107   -0.342360
H       1.005534    4.026160    0.841957
H       3.769130    3.143090    1.400741
H       2.485983    2.294739    2.320330
H       3.074619    0.425914    0.574379
H       4.137728    2.606852   -1.057421
H       3.114891    1.379954   -1.870044
H       1.387236    3.468605   -1.707505
