21

C       0.270137    1.523663   -0.254902
C       0.044360    0.037688    0.036328
N       0.579487   -0.819007   -1.043753
C       1.806911   -1.278858   -0.596931
C       2.800545   -1.931548   -1.519448
O       3.960249   -2.308642   -0.828869
N       2.037548   -1.171599    0.656169
C       0.840687   -0.547433    1.254452
C       1.198791    0.423497    2.373880
H       1.335060    1.749682   -0.369246
H      -0.241314    1.812884   -1.179759
H      -0.128425    2.149047    0.549174
H      -1.027297   -0.146766    0.158468
H       0.527048   -0.463739   -1.989586
H       2.317860   -2.802634   -1.992580
H       3.049412   -1.233441   -2.336324
H       3.780880   -2.094174    0.101105
H       0.236394   -1.358503    1.686634
H       1.834046    1.237158    2.013663
H       0.301003    0.857114    2.826601
H       1.749902   -0.108765    3.153537
