21

C       0.149542    1.534013    0.140465
C      -0.042853    0.027541   -0.003936
C      -1.485942   -0.426677    0.173474
O      -2.376182    0.363035    0.421264
C      -1.720740   -1.895393    0.032996
C      -2.896310   -2.525207    0.765831
C      -2.934822   -2.446641   -0.720772
C      -3.916822   -1.554130   -1.437280
O      -5.112285   -2.310577   -1.605210
H       1.200832    1.804952    0.008685
H      -0.443894    2.075716   -0.600490
H      -0.176225    1.874926    1.126394
H       0.299406   -0.328825   -0.986004
H       0.569439   -0.524382    0.723513
H      -0.818217   -2.491058   -0.056859
H      -2.735070   -3.483437    1.245960
H      -3.519647   -1.825646    1.312360
H      -2.731075   -3.370195   -1.256125
H      -4.088338   -0.642525   -0.854700
H      -3.501396   -1.256395   -2.414270
H      -5.771850   -1.732183   -1.999089
