24

C       0.303400    1.454709   -0.126679
C      -0.006853   -0.042953    0.031473
C       0.413739   -0.784152   -1.249420
C       0.642881   -0.642048    1.305993
C       0.263934    0.129392    2.578644
C       0.284470   -2.137065    1.459639
N       0.914152   -2.787388    2.600837
C       2.087195   -3.466570    2.500932
O       2.726915   -3.609178    1.479941
H       1.385675    1.627671   -0.168866
H      -0.126947    1.837154   -1.057806
H      -0.101125    2.056026    0.691028
H      -1.097961   -0.147002    0.139419
H       1.504144   -0.782551   -1.362713
H       0.079711   -1.824377   -1.267975
H      -0.011186   -0.292552   -2.130524
H       1.734013   -0.590237    1.182751
H      -0.825045    0.162698    2.712426
H       0.697847   -0.344298    3.464368
H       0.628642    1.158401    2.558200
H      -0.802854   -2.250540    1.554711
H       0.608570   -2.696063    0.581768
H       0.481741   -2.723953    3.507605
H       2.400240   -3.892889    3.475487
