20

C      -0.032078    1.414294   -0.065602
C       1.337817    0.788393    0.092630
C       2.073064    0.976200    1.403962
O       2.706413   -0.181929    1.949270
C       2.120326   -1.452163    1.768785
C       0.618926   -1.607451    2.015434
N      -0.141911   -0.453375    2.519665
C      -0.373664   -0.924503    1.142060
C       0.101284   -0.083436   -0.003113
H      -0.439189    1.907260    0.811248
H      -0.295761    1.875927   -1.010706
H       1.969325    0.779832   -0.791294
H       2.888676    1.693334    1.254945
H       1.388454    1.387485    2.148979
H       2.325913   -1.837655    0.755454
H       2.658932   -2.100807    2.468613
H       0.347198   -2.591173    2.396200
H      -0.895298   -0.761727    3.127011
H      -1.310445   -1.447563    0.956086
H      -0.006594   -0.601827   -0.953139
