20

C      -0.195245    1.652527   -0.637220
C       0.205041    0.326498    0.034741
C       0.786436   -0.669582   -0.933901
C       2.081371   -0.993059   -0.953988
C       2.628322   -1.962189   -1.962273
O       2.542699   -1.490879   -3.323996
C       1.328378   -1.188383   -3.843072
N       0.167446   -1.109332   -3.353519
C      -0.161823   -1.303146   -1.943613
H       0.682108    2.151317   -1.059690
H      -0.908655    1.491422   -1.451320
H      -0.658870    2.329038    0.087207
H       0.926890    0.524161    0.834747
H      -0.682517   -0.112883    0.511398
H       2.776571   -0.541312   -0.251434
H       3.694464   -2.138780   -1.810539
H       2.118042   -2.933331   -1.903423
H       1.463162   -0.979746   -4.905449
H      -0.255525   -2.379847   -1.731428
H      -1.166951   -0.893965   -1.800417
