18

C      -0.131086    1.551460    0.122287
C       0.080774    0.051722   -0.000202
C       1.237540   -0.557926   -0.824869
C       2.249688   -0.149797    0.348166
C       0.969053   -0.762475    1.004891
N       0.353616   -1.659218    1.987548
C      -0.065949   -2.524001    0.926804
O      -0.872319   -3.402570    0.906166
C       1.045047   -1.897534   -0.010507
H       0.789105    2.109557    0.311765
H      -0.573249    1.949140   -0.797702
H      -0.827372    1.774580    0.938377
H      -0.877129   -0.445876   -0.193049
H       1.427004   -0.443193   -1.893315
H       3.163097   -0.742448    0.417070
H       2.456144    0.912951    0.480408
H      -0.271249   -1.378831    2.736652
H       1.941588   -2.519456    0.050808
