13

O      -0.028861    1.314390    0.075610
C       0.047524   -0.021287    0.060389
N       0.191457   -0.685815   -1.063615
O       0.234166   -2.044804   -0.660016
C       0.100835   -2.088589    0.670001
O       0.134122   -3.275008    1.286588
C      -0.046321   -4.431379    0.560475
N       0.097496   -5.521929    1.163712
C      -0.020245   -0.849549    1.212359
H       0.043885    1.625508   -0.837230
H      -0.310629   -4.252636   -0.481871
H      -0.079097   -6.298714    0.529653
H      -0.142423   -0.573452    2.243702
