19

C      -0.052114    1.561882    0.013286
C      -0.038078    0.022745    0.013013
C       0.751193   -0.527355    1.214427
C      -1.435059   -0.539366   -0.030648
N      -2.306863   -0.313158    0.956188
N      -3.424797   -0.952144    0.587810
C      -3.316019   -1.590207   -0.608493
C      -2.029502   -1.340387   -1.038505
O      -1.495400   -1.798562   -2.205488
H       0.967533    1.961303    0.020160
H      -0.569518    1.954181   -0.867441
H      -0.574605    1.932089    0.900047
H       0.480838   -0.303785   -0.901837
H       0.805231   -1.619870    1.187009
H       1.772407   -0.132031    1.224251
H       0.260260   -0.240618    2.148831
H      -4.227751   -0.917981    1.191017
H      -4.122629   -2.150967   -1.049815
H      -0.587680   -1.485700   -2.269304
