17

N       0.068292    1.350146    0.119126
C      -0.027273   -0.010018    0.039536
C      -1.150110   -0.772539    0.073178
C      -0.792116   -2.166627    0.017095
N      -1.490182   -3.238079   -0.058836
O      -2.873934   -2.948411   -0.095921
C       0.728597   -2.302251   -0.001654
O       1.191328   -3.014298   -1.136679
C       1.230347   -0.843110   -0.046593
H       0.912035    1.781932   -0.221626
H      -0.767691    1.893035   -0.030727
H      -2.167917   -0.412007    0.111310
H      -3.262480   -3.828473   -0.120496
H       1.067547   -2.799056    0.919281
H       0.554421   -3.726611   -1.274734
H       1.759524   -0.672626   -0.991743
H       1.923722   -0.603963    0.767156
