21

C       0.007043    1.543565    0.073366
C      -0.012126    0.028159   -0.009162
C       0.217395   -0.666388   -1.386315
C      -0.718814   -1.806885   -0.884889
C       0.075326   -2.709464    0.031912
C       0.848204   -2.138325    0.960421
C       0.895615   -0.629660    1.053314
C      -1.397513   -0.703936   -0.007132
O      -2.036164   -1.030930    1.192557
H       1.019608    1.941711   -0.064202
H      -0.634298    1.987806   -0.695471
H      -0.354520    1.885803    1.050124
H      -0.233067   -0.092629   -2.201570
H       1.238231   -0.949131   -1.652814
H      -1.328585   -2.351510   -1.606604
H       0.001694   -3.787564   -0.072089
H       1.450762   -2.723004    1.649965
H       1.928918   -0.273416    0.935721
H       0.582186   -0.302494    2.055464
H      -2.120308   -0.134006   -0.599123
H      -1.497418   -1.707920    1.622512
