19

O      -0.083632    1.432562    0.032610
C       0.023832    0.010507    0.039287
C       0.672462   -0.526522   -1.252177
C      -0.092402   -0.105105   -2.508599
C       0.593303   -0.592792   -3.800478
C      -0.127753   -0.207521   -5.007559
C      -0.741491    0.121166   -5.987400
C       0.735641   -0.468942    1.227683
C       1.362483   -0.836511    2.185542
H       0.793994    1.789464    0.209916
H      -1.014546   -0.342800    0.079707
H       1.708335   -0.163709   -1.295075
H       0.729341   -1.619826   -1.183237
H      -1.113300   -0.503971   -2.474944
H      -0.185087    0.984178   -2.530697
H       1.615975   -0.194735   -3.843859
H       0.697331   -1.685753   -3.771722
H      -1.275799    0.407295   -6.858980
H       1.896405   -1.166023    3.042625
