20

C      -0.136982    1.590031    0.061591
C      -0.024314    0.057640    0.020839
C      -1.410193   -0.581796   -0.039283
O       0.641833   -0.390693   -1.166004
C       1.974408    0.060771   -1.314731
C       2.843102    0.011116   -0.060376
O       4.047411    0.173701   -0.120667
N       2.170787   -0.163872    1.111830
C       0.757354   -0.491458    1.226827
H       0.831481    2.074572    0.208712
H      -0.568653    1.953391   -0.875275
H      -0.790324    1.899868    0.882812
H      -1.969598   -0.185440   -0.890689
H      -1.322545   -1.664401   -0.162573
H      -1.975985   -0.374552    0.874036
H       2.443770   -0.577097   -2.067632
H       2.017473    1.093745   -1.692855
H       2.760357   -0.233248    1.929022
H       0.367573   -0.059507    2.155215
H       0.610082   -1.579159    1.278166
