17

O      -0.187064    0.036491   -0.717597
C      -0.073811    1.139931   -0.236150
C      -1.285759    1.948293    0.196136
C      -1.795865    2.797999   -0.977175
C      -0.842625    3.803581   -1.552929
C       0.489848    3.932065   -1.464260
C       1.540897    3.122565   -0.801950
O       2.691451    3.507946   -0.866276
C       1.274339    1.804121   -0.055279
H      -2.069549    1.252926    0.506147
H      -1.035582    2.601448    1.038998
H      -2.119519    2.129122   -1.788278
H      -2.702159    3.331769   -0.666049
H      -1.341053    4.557653   -2.161410
H       0.946873    4.774775   -1.976810
H       1.408572    2.035598    1.010345
H       2.065527    1.108287   -0.341349
