17

O       0.039031    0.047364    0.550901
C      -0.020320    1.138029    0.054851
C      -1.331550    1.895941   -0.111117
C      -1.319917    3.030770   -1.137689
C      -0.034818    3.858113   -0.956846
C       1.165063    2.917446   -1.141717
O       1.133888    1.768043   -0.286553
C       0.059645    4.974165   -1.888655
C       0.147713    5.875696   -2.678419
H      -2.104891    1.154586   -0.322781
H      -1.558659    2.299266    0.884856
H      -1.340912    2.631648   -2.158371
H      -2.205829    3.661143   -1.024143
H      -0.009945    4.246774    0.070999
H       1.205724    2.580190   -2.184751
H       2.102965    3.427063   -0.912657
H       0.221599    6.681405   -3.366594
