21

C      -0.208905    1.623607   -0.003573
C      -0.058363    0.110197    0.023415
C       1.156454   -0.550950   -0.666040
C       2.121808   -0.228801    0.531598
C       0.724882   -0.563730    1.171469
C       1.091287   -1.801267    0.278593
C       2.581432   -1.703767    0.637259
C       3.624031   -2.223909   -0.341054
O       2.832216   -2.183514    1.948489
H       0.735432    2.129688    0.222863
H      -0.544427    1.968972   -0.988028
H      -0.950028    1.957630    0.731313
H      -1.014924   -0.378019   -0.205543
H       1.420670   -0.556648   -1.725076
H       2.707118    0.681589    0.673302
H       0.501920   -0.592552    2.237031
H       0.478860   -2.692499    0.129477
H       3.422830   -1.898865   -1.365412
H       4.623812   -1.859435   -0.070888
H       3.650708   -3.318018   -0.321447
H       3.752060   -1.997766    2.164315
