19

C      -0.131046    1.560881    0.000997
C       0.094163    0.051869   -0.013751
C       0.889133   -0.512199   -1.203631
C       1.599304   -1.753149   -0.626153
N       1.726335   -1.435016    0.784883
C       2.505234   -2.235969    1.697639
C       0.885258   -0.438849    1.206548
O       0.777955   -0.036874    2.348441
H       0.816005    2.098986   -0.114480
H      -0.798707    1.871172   -0.808481
H      -0.571131    1.860768    0.955446
H      -0.881132   -0.452850    0.047490
H       0.269066   -0.754914   -2.069189
H       1.636890    0.221331   -1.524198
H       1.008223   -2.671003   -0.772932
H       2.583400   -1.924489   -1.077636
H       3.563895   -2.242951    1.411549
H       2.401059   -1.797847    2.691907
H       2.150525   -3.275209    1.723719
