23

C       0.328180    1.328004   -0.054857
O       0.200919   -0.059821    0.177373
C      -1.113154   -0.552143   -0.008629
C      -1.397032   -0.653210   -1.506851
O      -2.492221   -0.648967   -2.006454
C      -1.237716   -1.929949    0.710306
C      -0.866302   -1.729323    2.191399
C      -2.689037   -2.430951    0.614478
C      -0.278260   -2.952374    0.070942
H       1.375725    1.588148    0.112810
H       0.056874    1.606904   -1.084271
H      -0.301428    1.910523    0.634365
H      -1.854262    0.134234    0.431365
H      -0.470202   -0.741182   -2.120049
H      -1.536036   -1.006865    2.671442
H      -0.956646   -2.677505    2.731800
H       0.157719   -1.366131    2.296847
H      -3.012680   -2.567827   -0.419860
H      -2.781141   -3.392179    1.130685
H      -3.383456   -1.729480    1.089377
H       0.748157   -2.576470    0.065289
H      -0.296117   -3.889805    0.636013
H      -0.564205   -3.186792   -0.960298
