15

C      -0.063851    1.508448    0.027535
C       0.002762    0.019321   -0.026521
N       0.039857   -0.674319   -1.101087
C       0.090918   -2.090314   -0.685900
C       1.233460   -2.803983   -1.235610
C       2.182788   -3.394890   -1.672092
C       0.093157   -2.077154    0.871525
O       0.126818   -2.987534    1.654585
N       0.022639   -0.722422    1.158355
H       0.795994    1.915645    0.570930
H      -0.066352    1.903250   -0.988177
H      -0.970078    1.839762    0.546348
H      -0.836879   -2.584454   -1.007385
H       3.018465   -3.920936   -2.062858
H       0.020754   -0.353909    2.096032
