18

C       0.387572    1.132902   -0.558799
C       0.026589   -0.101780    0.263942
O       0.255030    0.110439    1.666681
C      -1.382946   -0.576260    0.046357
C      -2.272464   -0.517750   -1.009972
O      -2.016166    0.110484   -2.200662
C      -3.450212   -1.226531   -0.646351
C      -3.248660   -1.707158    0.630891
N      -2.005430   -1.321367    1.029867
H       1.419887    1.424617   -0.348082
H       0.276001    0.936342   -1.627201
H      -0.274891    1.969200   -0.307523
H       0.735386   -0.905321    0.018551
H      -0.270897    0.878416    1.920872
H      -2.790530    0.017370   -2.762188
H      -4.335236   -1.362771   -1.250455
H      -3.897314   -2.274535    1.278406
H      -1.579440   -1.470408    1.928499
