20

C      -0.198450    1.510072    0.052014
C      -0.058186   -0.015069    0.012104
C       0.777056   -0.557582    1.165339
C       0.195393   -0.509235    2.620372
C       0.422902   -2.027249    2.752972
O      -0.758397   -2.792616    2.353598
C      -0.284275   -2.919883    1.057041
N      -0.772387   -3.525018    0.072686
C       0.966553   -2.109332    1.301480
H       0.779352    2.001097   -0.009656
H      -0.806163    1.872348   -0.782467
H      -0.677247    1.843141    0.979437
H      -1.050462   -0.480925    0.026846
H       0.402235   -0.321262   -0.935536
H       1.766208   -0.088357    1.147981
H       0.779703    0.095704    3.317351
H      -0.857601   -0.229464    2.704502
H       0.890994   -2.452775    3.639702
H      -1.658759   -3.971764    0.315383
H       1.914309   -2.546671    0.994592
