16

C       0.023596    1.581022    0.164532
O       1.358743    1.571235   -0.400517
C       1.301341    0.158859   -0.611024
C       2.205156   -0.401515   -1.741257
O       3.038282   -1.100734   -0.724732
C       2.092323   -0.791625    0.216662
N       1.614554   -1.357516    1.235778
C       0.247904   -0.765915    1.370376
C      -0.094432    0.048071    0.059554
H       0.009787    1.993118    1.178994
H      -0.663207    2.149808   -0.472065
H       1.770511   -1.126790   -2.431483
H       2.780836    0.367395   -2.258880
H      -0.447851   -1.597471    1.514287
H       0.180779   -0.131714    2.262145
H      -0.957697   -0.342708   -0.477306
