23

C      -0.270986    1.607243    0.160649
C       0.077972    0.128158   -0.024916
C       0.679313   -0.510277    1.231651
C       1.030386   -1.993368    1.048375
C       1.644550   -2.594826    2.297953
C       0.813140   -3.216476    3.368261
C       1.746633   -4.102890    2.546986
C       1.155001   -5.084168    1.612839
O       1.652671   -6.149349    1.338073
H       0.617404    2.194407    0.418656
H      -0.698496    2.034585   -0.751650
H      -1.001224    1.743786    0.966059
H      -0.822904   -0.427692   -0.317093
H       0.783895    0.018673   -0.858711
H       1.582845    0.042935    1.523848
H      -0.023270   -0.405327    2.069250
H       0.124941   -2.542740    0.765386
H       1.728956   -2.101528    0.208106
H       2.526019   -2.060261    2.645167
H       1.066071   -3.065218    4.411280
H      -0.250687   -3.327008    3.177098
H       2.655047   -4.456057    3.022906
H       0.177113   -4.782509    1.171739
