16

C       0.078285    1.411729    0.259954
N      -0.070961    0.060119   -0.247058
C      -1.252046   -0.585731   -0.263229
N      -2.328021   -0.026695    0.179471
C      -3.504454   -0.717651    0.144848
C      -4.757752   -0.342884    0.550480
C      -5.555884   -1.474114    0.263008
N      -4.872825   -2.459540   -0.269247
O      -3.557233   -1.981214   -0.347697
H       1.123705    1.709899    0.166946
H      -0.549032    2.109785   -0.303379
H      -0.222250    1.467648    1.310950
H       0.735231   -0.419868   -0.604963
H      -1.211878   -1.597077   -0.674435
H      -5.043723    0.599306    0.984322
H      -6.616470   -1.610325    0.425621
