23

C      -0.014479    1.575485    0.123912
C       0.009032    0.046844    0.039663
C       0.691388   -0.473002   -1.229837
C       0.715003   -2.001359   -1.325638
C       1.452426   -2.520123   -2.566887
O       2.794519   -2.059445   -2.619400
C       1.378650   -4.061902   -2.657504
C       2.009395   -4.608466   -3.851394
C       2.519650   -5.055522   -4.843146
H       1.000774    1.987229    0.112305
H      -0.554971    2.009962   -0.724402
H      -0.503321    1.918910    1.041005
H       0.523431   -0.360637    0.920503
H      -1.018364   -0.338765    0.085993
H       0.177855   -0.065112   -2.111691
H       1.720635   -0.099766   -1.281021
H       1.196177   -2.422267   -0.429031
H      -0.311657   -2.391389   -1.330734
H       0.985155   -2.101133   -3.466053
H       3.272245   -2.449902   -1.878561
H       1.848702   -4.489522   -1.759435
H       0.325913   -4.370226   -2.621172
H       2.975635   -5.447630   -5.717962
