14

C      -0.048687    1.450180   -0.004824
N      -0.033000    0.005018    0.005490
C      -0.014737   -0.800444   -1.096722
C       0.070350   -2.113912   -0.683139
C       0.108232   -2.089710    0.737256
O       0.183312   -3.149819    1.595874
C       0.046595   -0.775280    1.142510
H       0.920939    1.867604    0.291328
H      -0.283667    1.798416   -1.012593
H      -0.813919    1.831268    0.678870
H      -0.062659   -0.377184   -2.087632
H       0.089116   -2.985498   -1.320540
H       0.218645   -3.956707    1.074886
H       0.050432   -0.341407    2.128111
