14

N      -0.117952    1.230977    0.481607
C      -0.055425    0.031690    0.123732
C      -1.074883   -0.941800   -0.454813
C       0.060059   -2.007787   -0.482353
N       0.957820   -0.983393    0.079339
C       2.274862   -1.103342    0.396922
O       2.925109   -2.115246    0.256138
C       2.871954    0.129879    0.943037
N       3.366655    1.081433    1.373581
H       0.761307    1.606543    0.835623
H      -1.906919   -1.162975    0.214962
H      -1.463909   -0.648794   -1.430829
H      -0.070034   -2.865466    0.180583
H       0.374376   -2.349674   -1.470452
