21

C      -0.193207    1.530223    0.183188
C       0.033447    0.038745    0.029473
C       0.674354   -0.665077   -1.164089
C       1.574674    0.106842   -2.115803
C       0.907526    1.032518   -3.122095
O       2.431087    0.886421   -1.266985
C       2.625227    0.183217   -0.046997
C       1.367155   -0.651480    0.171089
O       1.498711   -1.820735    0.921877
H       0.646958    2.110746   -0.199765
H      -1.095586    1.844298   -0.352956
H      -0.337061    1.788661    1.238786
H      -0.769023   -0.568778    0.444407
H       0.208216   -1.574909   -1.524559
H       2.185287   -0.631149   -2.665558
H       0.253110    1.752954   -2.626390
H       1.665201    1.583104   -3.687294
H       0.309387    0.449524   -3.829355
H       3.484177   -0.504294   -0.100251
H       2.824070    0.928203    0.732345
H       1.391862   -1.592886    1.851438
