21

C       0.318543    1.575948    0.186507
C       0.123733    0.061389    0.054407
C       0.635081   -0.731182    1.259319
C      -0.117555   -0.456993    2.576535
O      -0.116118   -1.671156    3.334993
C       0.554839   -2.702929    2.607225
C       0.489078   -2.256312    1.135679
C       1.933932   -2.883760    3.079553
C       3.064881   -3.031757    3.459591
H       1.375911    1.826906    0.325633
H      -0.032412    2.098168   -0.708722
H      -0.232886    1.981396    1.041526
H      -0.941309   -0.162930   -0.094522
H       0.639499   -0.291562   -0.847392
H       1.697530   -0.502285    1.410531
H       0.345503    0.338866    3.170286
H      -1.162048   -0.171978    2.382498
H      -0.001487   -3.631504    2.778597
H      -0.493945   -2.514775    0.725969
H       1.258714   -2.719963    0.515992
H       4.060075   -3.165615    3.805433
