19

C      -0.108801    1.473951   -0.005112
C      -0.035942   -0.016869   -0.080468
C       0.695824   -0.937030   -1.095975
C       0.202600   -1.811944    0.075255
O       0.635424   -0.761429    1.024577
C      -1.159894   -1.086585    0.022120
C      -2.246559   -1.142628    1.097016
C      -3.195228   -1.383172   -0.096120
O      -2.096546   -1.296418   -1.036217
H       0.892806    1.914168   -0.010206
H      -0.662917    1.861545   -0.865802
H      -0.620457    1.790843    0.909278
H       0.232766   -1.083489   -2.073764
H       1.777357   -0.798071   -1.140211
H       0.440832   -2.845512    0.326394
H      -2.156106   -1.964675    1.807860
H      -2.405890   -0.212312    1.644398
H      -3.678591   -2.365776   -0.132002
H      -3.945245   -0.606178   -0.280201
