19

C       0.124241    1.499506   -0.010137
C      -0.055235   -0.014197   -0.049976
N       0.671333   -0.589434   -1.164087
C       0.796867   -1.929030   -1.335195
N       0.350407   -2.788486   -0.496291
C       1.527853   -2.252319   -2.629597
O       1.885688   -1.416495   -3.425739
O       1.718236   -3.567095   -2.781722
C       2.394824   -3.957633   -3.984970
H       1.179337    1.768771    0.101403
H      -0.253030    1.968291   -0.925974
H      -0.427295    1.924727    0.832399
H       0.309580   -0.476619    0.874027
H      -1.121355   -0.275085   -0.117012
H       0.969176   -0.010196   -1.932752
H       0.579948   -3.726908   -0.814228
H       3.391675   -3.511887   -4.023289
H       2.460666   -5.044398   -3.947572
H       1.829077   -3.635190   -4.862329
