17

C       0.117023    1.537663    0.008406
C      -0.025288    0.017735    0.002525
C      -1.460236   -0.463199    0.012979
N      -2.448065    0.362063    0.022728
C      -3.784404   -0.111274    0.032217
O      -4.719337    0.664686    0.041041
C      -3.955279   -1.570190    0.029653
C      -2.879820   -2.377752    0.019359
N      -1.618205   -1.830101    0.011006
H       1.174895    1.814936   -0.000061
H      -0.370194    1.977909   -0.863914
H      -0.353856    1.969657    0.893754
H       0.471558   -0.410151   -0.879837
H       0.487368   -0.418528    0.871628
H      -4.960173   -1.971146    0.036330
H      -2.928214   -3.460391    0.017021
H      -0.806243   -2.425929    0.003303
