17

O      -0.107386    0.188141    0.738437
C       0.415379    0.673888   -0.231670
C       1.400487    1.795094   -0.148859
O       2.283080    1.943251   -1.268285
C       1.329278    2.974322   -1.048376
C       0.276867    3.202048   -2.106619
C       0.871438    3.943494   -3.325305
C      -0.121876    4.208679   -4.357286
C      -0.963142    4.411835   -5.191023
H       0.214268    0.310086   -1.261724
H       1.851011    1.924482    0.834404
H       1.766826    3.889484   -0.640938
H      -0.153762    2.255150   -2.439666
H      -0.537635    3.797010   -1.678737
H       1.321004    4.889177   -2.994779
H       1.689967    3.343119   -3.740633
H      -1.695528    4.598069   -5.936926
