18

C      -0.360397    1.188646   -0.119897
O      -0.157615   -0.207557   -0.244053
C       0.856858   -0.547011   -1.150346
C       1.020236   -2.076728   -1.133376
C       0.671283   -2.518030   -2.564479
O      -0.056817   -3.731407   -2.533344
C      -0.125506   -1.305180   -3.077589
O       0.524341   -0.187789   -2.486210
H       0.550650    1.694038    0.236112
H      -0.659393    1.638632   -1.073540
H      -1.155213    1.332003    0.615239
H       1.771314    0.014567   -0.911151
H       2.022100   -2.381332   -0.827371
H       0.295910   -2.508703   -0.439550
H       1.587880   -2.628430   -3.161651
H      -0.164450   -4.042081   -3.437544
H      -0.100604   -1.172590   -4.162764
H      -1.170577   -1.395485   -2.747298
