21

C       0.073877    1.580677    0.024256
C       0.131855    0.067300    0.086780
C       1.357776   -0.766016   -0.221236
C       2.592734   -0.125977    0.357179
C       3.990960   -0.324251   -0.017413
O       3.330041    0.926879   -0.255534
C       1.982864   -0.075258    1.769017
C       0.725867   -0.760087    1.194583
C      -0.019242   -1.853414    1.905078
H       1.003604    2.048131    0.354604
H      -0.105580    1.911836   -1.004117
H      -0.742516    1.966410    0.645442
H      -0.764357   -0.406836   -0.312881
H       1.350260   -1.544532   -0.976230
H       4.765296   -0.307254    0.749583
H       4.239379   -0.896575   -0.911265
H       2.522110   -0.709379    2.478853
H       1.851130    0.916728    2.211038
H      -0.584682   -1.458968    2.758431
H      -0.733679   -2.345291    1.236849
H       0.663958   -2.619732    2.289729
