25

C       0.032053    1.503055    0.195445
C       0.090071   -0.013929   -0.008150
C       0.791983   -0.472653   -1.304129
C       2.270356   -0.064327   -1.338344
C       0.591139   -1.980201   -1.472087
C       1.233661   -2.764239   -2.637050
C       1.767021   -3.694490   -1.525435
C       3.250478   -3.989190   -1.451878
O       1.325853   -2.769225   -0.500647
H       1.026584    1.941508    0.321024
H      -0.445009    1.999955   -0.657428
H      -0.548099    1.751988    1.089723
H       0.590727   -0.486751    0.845809
H      -0.934787   -0.407160   -0.013694
H       0.274761   -0.001125   -2.154757
H       2.747840   -0.340252   -2.283413
H       2.384299    1.016923   -1.227107
H       2.818221   -0.553467   -0.527695
H      -0.485210   -2.198700   -1.389628
H       0.549372   -3.202149   -3.365479
H       2.023919   -2.224762   -3.163354
H       1.194310   -4.631440   -1.455044
H       3.837014   -3.071293   -1.554638
H       3.501016   -4.451811   -0.491775
H       3.541273   -4.681540   -2.249831
