18

O       0.100426    1.339521    0.227878
C      -0.016762   -0.051614    0.033001
C      -1.487930   -0.473690   -0.003689
C      -1.546833   -1.990524   -0.347501
C      -1.382880   -1.541303   -1.823199
C      -2.080754   -0.209181   -1.417857
N       0.037660   -1.286465   -2.081049
C       0.710379   -0.415186   -1.281589
O       1.788422    0.087466   -1.550700
H       0.961914    1.575774   -0.146630
H       0.492227   -0.602433    0.844021
H      -2.020241   -0.102231    0.873501
H      -0.776120   -2.650594    0.059669
H      -2.536572   -2.411579   -0.158121
H      -1.788364   -2.155678   -2.627166
H      -3.169067   -0.302415   -1.425758
H      -1.777234    0.701187   -1.939405
H       0.420145   -1.438952   -3.003053
