14

N       0.064780    1.422702    0.089096
C       0.014108    0.021408    0.007088
C      -1.043734   -0.840129    0.024248
O      -0.631861   -2.130776    0.005916
C       0.742374   -2.102210   -0.033580
C       1.460106   -3.306927   -0.054138
N       2.109037   -4.270055   -0.066472
C       1.189500   -0.800550   -0.028319
N       2.478349   -0.306836   -0.104738
H       0.586950    1.827414   -0.681543
H      -0.854292    1.846020    0.115916
H      -2.109811   -0.685369    0.059819
H       3.202446   -0.988855    0.077130
H       2.613221    0.535128    0.441109
