15

N      -0.094739    1.311388   -0.360367
C      -0.033967   -0.028101   -0.144595
N      -1.000348   -0.895775   -0.263829
C      -0.337943   -2.067634    0.016606
N       0.943360   -1.957723    0.282778
O       1.150956   -0.548015    0.183078
N      -1.008605   -3.273957    0.085010
C      -1.540182   -3.876592   -1.134677
C      -0.373145   -4.480710   -0.425541
H       0.633896    1.866853    0.059024
H      -1.020468    1.707557   -0.329796
H      -2.529049   -4.313058   -1.037370
H      -1.349667   -3.361813   -2.072219
H       0.607562   -4.370734   -0.878676
H      -0.506837   -5.365708    0.188288
