18

N      -0.381836    1.277162   -0.179968
C      -0.047663   -0.047982   -0.141155
O       1.024593   -0.506212   -0.447641
O      -1.129499   -0.770947    0.271706
C      -0.993486   -2.202312    0.275668
C      -1.796519   -2.797591    1.453262
C      -3.022555   -2.966682    0.511027
C      -2.053262   -2.806844   -0.697944
O      -2.430497   -2.053911   -1.811582
H       0.386741    1.920662   -0.262805
H      -1.196845    1.583875    0.323954
H       0.056690   -2.455425    0.144482
H      -1.374410   -3.751336    1.779390
H      -1.913136   -2.146461    2.321116
H      -3.603483   -3.888818    0.576905
H      -3.704300   -2.113831    0.577002
H      -1.718076   -3.779960   -1.068914
H      -2.507445   -1.139316   -1.514463
