21

C       0.026102    1.442229   -0.224444
C       0.055491   -0.054540    0.122260
C       0.745740   -0.307033    1.471111
C      -1.358163   -0.614971    0.119106
C      -2.034151   -1.089657   -1.138075
C      -1.640953   -2.101116   -0.055455
N      -0.559826   -3.045533   -0.210333
C      -2.732739   -2.636778    0.730739
N      -3.621911   -3.057006    1.339697
H       1.040040    1.852791   -0.258743
H      -0.446972    1.618709   -1.195250
H      -0.535638    2.004744    0.529939
H       0.635104   -0.556187   -0.665763
H       0.792868   -1.375309    1.701098
H       1.765439    0.091141    1.468980
H       0.198137    0.184798    2.283050
H      -2.009663   -0.128241    0.841029
H      -3.084471   -0.870714   -1.292817
H      -1.436675   -1.133385   -2.043745
H      -0.795680   -3.749195   -0.903147
H       0.285854   -2.582243   -0.518206
