18

C       0.049087    1.475870   -0.046828
C       0.018131   -0.032845    0.088533
O       0.987543   -0.662046   -0.813621
C       1.749391   -1.121688    0.302722
C       0.738679   -0.600931    1.308089
C       0.970119   -2.089917    1.155666
C      -0.030388   -3.070875    0.596974
O       1.697533   -2.548034    2.270303
H       1.051687    1.862651    0.157471
H      -0.237143    1.768470   -1.061445
H      -0.654047    1.935778    0.656557
H      -0.991957   -0.417876   -0.100933
H       2.832203   -1.075079    0.252910
H       0.881148   -0.104625    2.258880
H      -0.470902   -2.698845   -0.329965
H       0.466330   -4.021071    0.364216
H      -0.826672   -3.275440    1.319559
H       2.236312   -3.293320    1.981259
