15

O      -0.002751    1.343049   -0.178689
C       0.019605   -0.026707   -0.076125
C      -0.000715   -0.633480    1.380921
O      -1.423874   -0.272513    1.429523
C      -1.428038   -0.737858    0.043934
C      -2.560099   -0.288890   -0.812921
O      -3.292962    0.624528   -0.533481
C      -1.000994   -2.194809    0.156462
C      -0.036042   -2.124048    1.081864
H      -0.679547    1.655996    0.440753
H       0.726605   -0.432523   -0.801548
H       0.594357   -0.228503    2.197773
H      -2.647013   -0.841658   -1.775769
H      -1.382832   -3.029909   -0.411857
H       0.603047   -2.890987    1.493029
