21

O       0.135330    1.188714   -0.350379
C       0.061052   -0.193427   -0.020279
C      -1.403508   -0.576882    0.011721
C      -2.201503   -0.593871   -1.323980
C      -2.737423   -2.017849   -0.982705
C      -2.290787   -3.169797   -1.884859
C      -0.817210   -3.344266   -1.487521
O      -0.740422   -3.016672   -0.101313
C      -1.758067   -2.079463    0.228862
H       1.063666    1.428186   -0.424207
H       0.597012   -0.807188   -0.759421
H       0.518708   -0.398364    0.960844
H      -1.908906    0.042407    0.760105
H      -2.958572    0.184331   -1.435134
H      -1.561270   -0.570701   -2.211595
H      -3.799871   -2.048941   -0.737605
H      -2.856541   -4.077677   -1.651039
H      -2.413099   -2.955979   -2.950671
H      -0.446787   -4.366225   -1.609558
H      -0.170916   -2.677577   -2.079426
H      -2.137390   -2.345743    1.219101
