16

N       0.140988    1.368014    0.250847
C      -0.031289   -0.004611    0.062334
C      -1.142372   -0.823815    0.121802
C      -0.667204   -2.104059   -0.257428
N       0.632190   -2.087249   -0.536750
N       0.997412   -0.797709   -0.332128
C      -1.453845   -3.355800   -0.325467
C      -0.855168   -4.636992   -0.717503
O      -1.166998   -4.378396    0.649344
H       0.918436    1.596796    0.859444
H      -0.698018    1.803609    0.609478
H      -2.140286   -0.547190    0.421730
H       1.937623   -0.513627   -0.549197
H      -2.520825   -3.211081   -0.493369
H      -1.473179   -5.387957   -1.209178
H       0.205236   -4.661396   -0.957132
