27

C       0.365278    1.014312   -1.408066
C       0.399923   -0.403263   -0.826834
C       0.886521   -0.491830    0.633815
C      -0.081578    0.200479    1.605011
C       1.147398   -1.963570    1.029805
C       1.838861   -2.123582    2.389481
C       2.243462   -3.568312    2.693594
O      -0.088006   -2.687648    1.057684
C      -0.217396   -3.712869    0.099360
H       1.347208    1.496151   -1.335947
H       0.084031    0.993959   -2.465849
H      -0.356525    1.654620   -0.892613
H      -0.598039   -0.853385   -0.896156
H       1.059737   -1.018610   -1.452986
H       1.860386    0.017580    0.689062
H      -1.033108   -0.338313    1.637571
H       0.320707    0.235700    2.621192
H      -0.279828    1.231711    1.301402
H       1.802640   -2.404204    0.261683
H       2.723101   -1.474038    2.410883
H       1.163284   -1.765607    3.173605
H       2.722357   -3.645985    3.674511
H       1.366067   -4.221272    2.696514
H       2.949923   -3.951952    1.948357
H       0.561860   -4.481839    0.208035
H      -1.192221   -4.182020    0.261586
H      -0.182151   -3.330491   -0.931043
