21

C       0.338755    1.601272   -0.092986
C       0.049712    0.081893   -0.073763
C       0.402320   -0.508840    1.295685
C      -1.443550   -0.101200   -0.335496
O      -2.223929   -0.628529    0.414987
C       0.801211   -0.573416   -1.256483
O       0.527131    0.040584   -2.498647
C       2.225739   -1.029916   -1.129743
C       1.114477   -2.046354   -1.309921
H       1.408637    1.773829    0.060095
H       0.062545    2.044797   -1.051645
H      -0.208213    2.110926    0.706213
H      -0.209702   -0.032782    2.065624
H       0.195516   -1.579946    1.349586
H       1.452438   -0.334870    1.543502
H      -1.790169    0.315377   -1.309223
H      -0.238850   -0.392301   -2.888799
H       2.859508   -0.825604   -1.984496
H       2.720895   -0.978081   -0.168022
H       0.853459   -2.678275   -0.469768
H       1.030520   -2.525320   -2.279554
