17

C       0.103173    1.524666    0.046992
C      -0.022020    0.028839   -0.037240
C      -0.015964   -0.630003   -1.194129
C      -0.137934   -2.116400   -1.320641
N      -0.265689   -2.778818   -0.036928
C      -0.284209   -2.215701    1.204491
O      -0.397038   -2.888795    2.212992
C      -0.156921   -0.699902    1.273138
H       0.979254    1.813165    0.641856
H       0.196468    1.980484   -0.942073
H      -0.769140    1.964896    0.546874
H       0.082031   -0.092168   -2.133172
H      -1.006539   -2.360035   -1.953404
H       0.739450   -2.511303   -1.857760
H      -0.353095   -3.784729   -0.026624
H       0.699094   -0.483721    1.926713
H      -1.029224   -0.334349    1.831836
