14

O       0.004437    1.370017    0.040888
C      -0.032979   -0.007933    0.015451
C      -0.455381   -0.791491    1.203533
N      -1.424191    0.045211    1.932173
C      -2.407195   -0.081110    0.802591
C      -1.357244   -0.793859   -0.062757
C      -1.612371   -1.797837   -1.033179
N      -1.814819   -2.620940   -1.823277
H      -0.346326    1.627741    0.908815
H       0.751091   -0.443212   -0.595927
H       0.104597   -1.591518    1.673110
H      -1.761771   -0.398318    2.777482
H      -3.246901   -0.735781    1.045561
H      -2.777201    0.876468    0.425208
