19

C       0.002490    1.520810    0.169160
C       1.308529    0.781632    0.029567
C       0.001319    0.018911    0.028572
C      -0.020418   -0.616855   -1.385296
O       1.371668   -0.802035   -1.687588
C       1.925116    0.477802   -1.350854
C       1.570440    1.465988   -2.483625
C       0.152893    1.249466   -2.964075
C      -0.610329    0.287332   -2.445921
H      -0.222473    1.919239    1.154182
H      -0.368900    2.124595   -0.649623
H       1.972919    0.736298    0.884899
H      -0.294926   -0.599573    0.867725
H      -0.494124   -1.600799   -1.382116
H       3.008502    0.358050   -1.274604
H       1.704604    2.499884   -2.138576
H       2.267610    1.331405   -3.321488
H      -0.219633    1.903878   -3.747950
H      -1.641991    0.140888   -2.750615
