15

N       0.013017    1.431067    0.184391
C       0.017881    0.032967    0.045969
C      -1.063164   -0.810909   -0.008694
N      -0.626934   -2.155880   -0.122928
C       0.733632   -2.112696   -0.061806
C       1.192360   -0.801119    0.010782
C       2.604410   -0.940527    0.012292
N       2.971535   -2.215556   -0.048217
N       1.805109   -2.936932   -0.102676
H       0.727001    1.875047   -0.380066
H      -0.884294    1.840338   -0.043532
H      -2.118091   -0.588068   -0.021962
H      -1.199429   -2.943597    0.125891
H       3.371024   -0.181027    0.060489
H       1.855798   -3.938980   -0.126179
