21

C       0.381600    1.754056   -0.573668
N      -0.009941    0.385869   -0.271624
C       1.039516   -0.571874    0.043806
C       0.080665   -0.127612    1.099305
C       0.557085    0.706721    2.246093
N      -0.465200    1.180898    3.201302
C       0.578154    0.246456    3.664563
C       0.063158   -1.085901    4.158397
O      -0.607836   -0.933452    5.398504
H       1.314922    2.087460   -0.092158
H       0.520627    1.842937   -1.655841
H      -0.421853    2.435800   -0.277363
H       0.954616   -1.555674   -0.410909
H       2.061246   -0.197520    0.122107
H      -0.750630   -0.781027    1.349988
H       1.348870    1.408506    1.993831
H      -0.261145    2.129786    3.501652
H       1.367929    0.663819    4.288084
H      -0.591558   -1.549361    3.408210
H       0.898055   -1.770672    4.340745
H      -1.309477   -0.290529    5.240960
