17

C       0.185280   -3.715651    0.113646
C       0.109020   -2.510775    0.086077
C       0.021937   -1.153290    0.054804
C      -0.054877    0.054842    0.032299
C      -0.147862    1.518310   -0.004408
C      -0.729585    2.106529    1.297932
C       0.528971    2.209454    2.170954
C       1.616859    2.557848    1.141639
O       1.139689    2.120488   -0.138925
H       0.253261   -4.774845    0.137102
H      -0.734737    1.811830   -0.882610
H      -1.139726    3.098194    1.083029
H      -1.517275    1.487278    1.729586
H       0.443728    2.959297    2.960302
H       0.738874    1.244347    2.641144
H       1.793057    3.639618    1.085147
H       2.572277    2.068081    1.359719
