14

O       0.055690    0.114075   -0.672354
C       0.230981    0.963032    0.162125
C       1.349489    1.951824    0.144835
C       1.702213    2.789501    1.370771
C       2.218239    4.083171    0.774694
C       2.143609    4.094621   -0.558716
C       1.631426    2.787842   -1.063037
O       2.449075    1.666015   -0.714370
H      -0.462388    1.088112    1.025788
H       0.818156    2.955559    2.001176
H       2.452630    2.293960    1.997965
H       2.623283    4.879198    1.388891
H       2.431049    4.909036   -1.211386
H       1.077599    2.678523   -1.990553
