21

C      -0.154499    1.591779   -0.006723
C       0.064400    0.086318    0.019600
C       1.084586   -0.594465   -0.934691
C       2.510879    0.018609   -0.901919
C       2.781945   -0.695708    0.446005
O       4.028077   -1.301183    0.640164
C       2.106101    0.004412    1.651704
C       0.740646   -0.606534    1.235150
C       1.492660   -1.560655    0.236831
H       0.776665    2.146721    0.143975
H      -0.575419    1.910152   -0.967310
H      -0.852404    1.900428    0.779996
H      -0.897705   -0.418070   -0.135708
H       0.715671   -0.923374   -1.906806
H       3.133448   -0.439029   -1.676601
H       2.620133    1.107512   -0.951573
H       4.686961   -0.605510    0.747984
H       2.459389   -0.462676    2.575917
H       2.192768    1.092523    1.744528
H       0.089763   -0.945342    2.041901
H       1.457939   -2.646546    0.225285
