18

O       0.020472    0.033508    0.234354
C      -0.013733    1.219406    0.064429
C      -1.331044    2.052810   -0.134468
C      -0.799018    3.412946   -0.566042
N      -0.863435    4.801649    0.153778
C      -0.139656    4.092854    1.305508
C       0.589954    3.504778    0.069539
C       0.566826    4.971514   -0.431759
C       1.248838    2.150626    0.006927
H      -1.960355    1.561601   -0.879819
H      -1.885456    2.034442    0.807974
H      -0.858426    3.546852   -1.650164
H       0.425349    4.775333    1.945930
H      -0.781863    3.451132    1.910744
H       0.580759    5.143208   -1.511312
H       1.154080    5.721281    0.104447
H       1.938456    1.893980    0.814371
H       1.758836    1.964566   -0.946438
