17

N       1.060536   -1.092636    0.652227
C      -0.086587   -0.365089    0.756185
O      -0.100028    0.702247    1.358880
C      -1.324536   -0.889020    0.080509
C      -2.575698   -0.103511    0.455245
O      -2.507845    1.251870    0.078015
C      -1.203826   -1.401084   -1.345638
C      -1.486630   -2.363950   -0.232897
H       1.878220   -0.734667    1.117413
H       1.096813   -2.015526    0.259865
H      -3.437376   -0.538134   -0.064017
H      -2.752488   -0.213967    1.536873
H      -1.738233    1.595419    0.555337
H      -2.007413   -1.138337   -2.024596
H      -0.218809   -1.405203   -1.798759
H      -0.717034   -3.061740    0.080215
H      -2.489803   -2.767788   -0.143555
