14

C      -0.052598    1.540521   -0.052755
C       0.017918    0.023132   -0.015960
C       1.339846   -0.677505   -0.237421
C       0.732648   -0.691597    1.148605
C       1.312446    0.094779    2.200552
N       1.779714    0.732498    3.044802
C      -1.162131   -0.654571   -0.499112
N      -2.110194   -1.189547   -0.889318
H       0.859552    1.975586    0.361413
H      -0.168929    1.887198   -1.083062
H      -0.901240    1.904667    0.532050
H       1.346305   -1.615191   -0.778939
H       2.200818   -0.039992   -0.399299
H       0.288924   -1.623935    1.479125
