15

C       0.011306    1.414585    0.114128
C       1.463652    1.954873   -0.110468
C       2.253605    0.682356   -0.021610
C       3.494170    0.103108    0.077307
N       3.281090   -1.243754    0.028677
N       1.960545   -1.591242   -0.095786
C       1.371707   -0.410202   -0.131208
N       0.047691   -0.008172   -0.308907
H      -0.248396    1.504302    1.179265
H      -0.733128    1.968230   -0.464164
H       1.551781    2.419272   -1.100896
H       1.719925    2.717959    0.629590
H       4.489604    0.506091    0.181306
H       3.962434   -1.975114    0.124215
H      -0.656496   -0.597822    0.113598
