17

C      -0.211679    1.549326   -0.070171
C       0.031658    0.045880    0.039164
N       0.732211   -0.537619   -1.107396
C       1.907554   -1.174014   -0.795849
N       2.902827   -1.540950   -1.499405
C       1.909489   -1.414462    0.705770
O       3.177646   -1.450094    1.270963
C       0.981228   -0.305367    1.208804
O       0.976793    0.226184    2.282329
H       0.725271    2.082933   -0.254998
H      -0.911964    1.777375   -0.879648
H      -0.634984    1.914272    0.868665
H      -0.927815   -0.464837    0.210672
H       0.560911   -0.196754   -2.040816
H       2.818741   -1.289416   -2.483961
H       1.353799   -2.357807    0.884596
H       3.775755   -1.620134    0.525066
