19

C      -0.089971    1.520834    0.026578
C      -0.072776    0.028021   -0.085582
C       0.741277   -0.803676   -1.078544
C      -0.171071   -2.025831   -0.718016
N       0.510476   -2.735043    0.378451
C       0.422983   -1.932096    1.362690
N      -0.371155   -0.754639    1.196458
C      -1.147209   -1.003371   -0.039284
C      -2.641962   -0.950270   -0.047601
H       0.874533    1.893694    0.389505
H      -0.279722    1.980862   -0.949308
H      -0.862333    1.848785    0.726468
H       0.548979   -0.447884   -2.094203
H       1.816091   -0.935803   -0.922814
H      -0.505820   -2.682959   -1.517956
H       0.905395   -2.095573    2.321336
H      -2.998410   -0.083732    0.516223
H      -3.024316   -0.877539   -1.071430
H      -3.067626   -1.850782    0.408590
