17

C       0.057152    1.613786   -0.221611
N       0.265601    0.186360   -0.040521
C       1.493409   -0.498268   -0.349848
C       2.755369    0.305568    0.033551
C       2.226757    0.341426    1.511320
C       2.105515    1.649370    2.248374
O       1.106226    2.047174    2.791989
C       0.959975   -0.417567    1.066461
H       0.952364    2.239929   -0.101295
H      -0.333069    1.778276   -1.230984
H      -0.685965    1.954929    0.502654
H       1.473837   -1.323043   -1.054187
H       3.674773   -0.273282   -0.066211
H       2.891580    1.266082   -0.472288
H       2.869981   -0.300262    2.127995
H       3.049547    2.244647    2.280476
H       0.439435   -1.158466    1.662776
