23

C      -0.194903    1.549112    0.076347
C      -0.037092    0.040987    0.010055
C      -1.224091   -0.713835    0.583960
C       0.661176   -0.615643   -1.171651
C       1.305867    0.193890   -2.294901
C       2.752093    0.563320   -1.951595
O       2.842439    1.141414   -0.659372
C       2.604970    0.191077    0.369859
C       1.319337   -0.600378    0.200057
H       0.686177    2.075526   -0.291765
H      -1.064504    1.873914   -0.508432
H      -0.365327    1.867577    1.111798
H      -2.147674   -0.460105    0.049569
H      -1.085428   -1.797508    0.512866
H      -1.376339   -0.466683    1.641604
H       0.233452   -1.563841   -1.483951
H       1.296641   -0.387524   -3.223032
H       0.738498    1.109785   -2.495316
H       3.395475   -0.331104   -2.006076
H       3.148681    1.307612   -2.648499
H       3.449555   -0.518572    0.409321
H       2.608211    0.761260    1.305324
H       1.329377   -1.539439    0.748282
