19

C      -0.182351    1.538688    0.025418
C       0.003697    0.030320   -0.006211
C       0.809067   -0.599149   -1.194990
C       2.108357   -0.229517   -0.419275
C       1.197949   -0.594365    0.796088
N       0.908788   -2.040761    0.629967
C       0.676683   -2.092483   -0.854419
C       1.513129   -0.194587    2.151028
N       1.775321    0.160499    3.219517
H       0.722770    2.095036   -0.230617
H      -0.961072    1.830970   -0.686630
H      -0.502517    1.865252    1.020055
H      -0.942595   -0.469153    0.221369
H       0.643735   -0.295584   -2.227913
H       2.994786   -0.852444   -0.566258
H       2.374529    0.824420   -0.476163
H       1.732824   -2.580804    0.876925
H      -0.318830   -2.491072   -1.073757
H       1.419153   -2.711659   -1.368233
