21

C      -0.621703    1.527130   -0.279463
C      -0.267834    0.046078   -0.243756
C       0.995608   -0.482601   -1.042557
C       1.841246    0.486448   -1.845531
O       1.085481    0.881016   -2.986398
C       1.570614   -0.964806    0.294944
O       1.658955    0.178674    1.162857
C       0.392390   -0.495666    1.044213
C      -0.264784   -0.979549    2.295624
H       0.192905    2.129021    0.132835
H      -0.804060    1.853574   -1.306548
H      -1.521629    1.728683    0.311974
H      -1.139047   -0.560504   -0.511540
H       0.712067   -1.324093   -1.682312
H       2.112898    1.348828   -1.222921
H       2.777709   -0.012637   -2.146353
H       1.576227    1.567521   -3.447465
H       2.256056   -1.782928    0.491324
H      -0.737042   -0.149789    2.833941
H      -1.042688   -1.714866    2.065285
H       0.469767   -1.440755    2.961317
