17

C      -0.127606    1.431246   -0.019072
C       0.002889   -0.062470   -0.046798
C       0.977348   -0.906260   -0.880427
C       0.100921   -2.134227   -0.503658
C       0.303999   -2.251794    1.025800
O       0.617963   -3.153667    1.752010
C      -0.311776   -0.906861    1.231356
C      -1.054180   -1.101341   -0.124606
O      -2.380670   -1.006362   -0.422346
H       0.744375    1.896587    0.452452
H      -0.213983    1.827005   -1.036739
H      -1.018938    1.740710    0.535024
H       0.908053   -0.655311   -1.942957
H       2.028036   -0.939418   -0.569523
H       0.023419   -3.016121   -1.133376
H      -0.679019   -0.433113    2.132069
H      -2.865413   -1.682840    0.065566
