19

C      -0.089520    1.536329    0.039394
C      -0.042910    0.004254    0.039908
C       0.677372   -0.536958    1.279951
N      -1.411280   -0.506790    0.031623
C      -1.754635   -1.216230   -0.942967
O      -3.035045   -1.709044   -0.978119
C      -3.374859   -2.493764   -2.060790
N      -4.673570   -2.858680   -1.936397
O      -2.634324   -2.784680   -2.966123
H       0.922975    1.951458    0.066513
H      -0.591697    1.911222   -0.857236
H      -0.639472    1.899601    0.913030
H       0.507562   -0.329011   -0.857384
H       0.149084   -0.232603    2.188764
H       0.718411   -1.629975    1.261605
H       1.701885   -0.154337    1.326716
H      -1.153601   -1.510681   -1.806097
H      -5.179436   -2.656674   -1.092229
H      -5.040968   -3.520816   -2.595849
