19

C       0.107427    1.455684    0.349183
C      -0.011426   -0.029963    0.007941
O      -1.372693   -0.450704   -0.119360
C       0.757341   -0.440447   -1.245746
C       2.138087   -1.070272   -1.118490
C       0.985320   -1.963571   -1.400608
O       0.491634   -2.780932   -0.395854
C       0.364507    0.204072   -2.512615
O      -0.635576    0.877206   -2.656328
H       1.153690    1.728701    0.522802
H      -0.283800    2.079530   -0.457475
H      -0.459939    1.665755    1.259764
H       0.380127   -0.615600    0.844078
H      -1.726477    0.030513   -0.880094
H       2.857360   -0.892979   -1.912002
H       2.555438   -1.096249   -0.118188
H       0.900946   -2.368157   -2.409145
H      -0.445815   -2.562038   -0.289094
H       1.031340   -0.006393   -3.379762
