25

C       0.150557    1.429808    0.684095
C       0.001978   -0.013465    0.194535
C       0.699596   -0.267460   -1.146973
C       0.591994   -1.710156   -1.647856
C      -0.851539   -2.191807   -1.970164
C      -0.652226   -3.132618   -3.132342
C       0.564154   -3.034292   -3.672948
C       1.094602   -3.772893   -4.860827
C       1.391737   -1.993624   -2.946725
H       1.205306    1.695827    0.816962
H      -0.278670    2.137491   -0.034108
H      -0.354511    1.582323    1.643174
H       0.410457   -0.700030    0.948350
H      -1.063510   -0.260442    0.106335
H       0.282211    0.408048   -1.908046
H       1.760913    0.002454   -1.053506
H       0.989310   -2.374156   -0.868714
H      -1.337011   -2.666526   -1.109607
H      -1.498581   -1.347736   -2.256851
H      -1.439195   -3.782849   -3.501844
H       0.354851   -4.466559   -5.270293
H       1.389139   -3.080023   -5.660109
H       1.994553   -4.346572   -4.603775
H       1.489771   -1.087085   -3.564754
H       2.415815   -2.330222   -2.741490
