21

C      -0.147173    1.596492    0.023428
C      -0.080474    0.066563   -0.013118
C       0.741077   -0.495468   -1.190005
C       2.228291   -0.176337   -1.149751
C       2.987792   -1.262696   -1.299417
C       2.156953   -2.503228   -1.416261
O       2.509770   -3.489214   -2.339183
C       1.354889   -2.853688   -0.182563
C       0.730906   -2.023365   -1.293134
H       0.842232    2.044106    0.162964
H      -0.563319    1.997779   -0.907595
H      -0.781792    1.941534    0.845685
H       0.333530   -0.308348    0.930318
H      -1.098381   -0.336627   -0.082804
H       0.310952   -0.073382   -2.111924
H       2.604005    0.828874   -0.995469
H       4.072162   -1.286921   -1.317039
H       3.132635   -4.087043   -1.912596
H       0.993440   -3.875455   -0.116838
H       1.621969   -2.396482    0.764331
H      -0.045037   -2.505813   -1.875339
