18

O      -0.168084    0.924511    1.365083
C      -0.121809   -0.076466    0.362136
C       0.700518   -1.267439    0.888170
C      -0.328772   -2.235653    1.455964
C      -1.378410   -1.687045    2.350054
N      -1.672048   -1.929813    0.916815
C      -1.504722   -0.730424    0.072051
C      -2.707177    0.180120    0.180703
O      -2.654727    1.388252    0.198288
H      -0.828440    1.569215    1.073509
H       0.308896    0.332810   -0.561846
H       1.243692   -1.746665    0.067096
H       1.432468   -0.925714    1.624264
H      -0.068156   -3.288613    1.512274
H      -1.913580   -2.352668    3.020618
H      -1.262570   -0.664085    2.692366
H      -1.506230   -1.089973   -0.970467
H      -3.679409   -0.352786    0.232709
