16

N      -0.367501    1.455028   -0.060860
C      -0.150096    0.033062   -0.059264
C      -1.294815   -0.777028   -0.083974
O      -2.509353   -0.188942   -0.107311
C      -1.183441   -2.168944   -0.084470
C       0.082661   -2.740295   -0.060004
C       1.234614   -1.955641   -0.035147
C       1.111229   -0.565917   -0.034923
O       2.186891    0.276732   -0.011515
H       0.087573    1.885841   -0.861392
H       0.055604    1.882756    0.758631
H      -2.316657    0.767538   -0.101404
H      -2.081972   -2.773090   -0.103804
H       0.179575   -3.821038   -0.060161
H       2.218798   -2.414741   -0.016159
H       2.991787   -0.251171    0.003797
