20

C      -0.037788    1.569329   -0.023424
C       0.046981    0.042518   -0.012359
C       0.692977   -0.528639   -1.284602
C       0.793957   -2.053562   -1.209398
O       1.494864   -2.478573   -0.049422
C       0.873004   -2.056805    1.138698
C       0.792623   -0.514894    1.233675
C       2.132391    0.064735    1.371605
N       3.184216    0.531125    1.483380
H       0.957987    2.019887   -0.081620
H      -0.615933    1.914766   -0.886206
H      -0.525213    1.947682    0.881484
H      -0.972858   -0.361826    0.059729
H       0.106552   -0.241611   -2.164946
H       1.697098   -0.105566   -1.408841
H      -0.216282   -2.498888   -1.217399
H       1.347090   -2.457978   -2.061002
H      -0.154884   -2.452387    1.207827
H       1.458154   -2.468459    1.964607
H       0.229203   -0.251905    2.137994
