20

C      -0.013557    1.550340    0.153013
C      -0.003777    0.017666    0.022796
C       0.851003   -0.625497    1.121875
C      -1.414364   -0.517520   -0.005941
C      -2.258353   -0.958664    1.150619
C      -1.950248   -1.943510    0.012082
C      -2.819317   -1.537658   -1.163416
O      -3.659087   -2.050958   -1.845880
N      -2.269159   -0.236963   -1.178041
H       1.005401    1.947988    0.114413
H      -0.582605    2.015520   -0.657921
H      -0.460234    1.860546    1.104388
H       0.438937   -0.233472   -0.950120
H       0.489909   -0.355629    2.120341
H       0.857827   -1.717256    1.044416
H       1.885972   -0.279661    1.044449
H      -1.745237   -1.181993    2.081140
H      -3.268290   -0.577649    1.273569
H      -1.441778   -2.882720    0.177413
H      -2.848690    0.592021   -1.260690
