13

C      -0.061477    1.520031    0.007197
C       1.432969    1.893152   -0.039500
O       2.169375    1.473044    1.105231
C       2.296690    0.681436   -0.090967
C       1.350558   -0.455832   -0.057483
N       1.360826   -1.751516   -0.078107
O       0.026076   -2.100841    0.021948
N      -0.798189   -0.987966    0.101683
C       0.014591    0.019337    0.045370
H      -0.548620    1.950286    0.886697
H      -0.588544    1.881390   -0.881705
H       1.739920    2.841892   -0.470717
H       3.279274    0.639642   -0.545553
