15

N       0.061272    1.283941    0.019996
C      -0.014989    0.022044   -0.060660
N      -1.231065   -0.648805   -0.011693
C      -1.509570   -2.083944   -0.078461
C      -3.034666   -1.743075   -0.049609
C      -2.583022   -0.267397    0.032916
O      -3.132950    0.787153    0.108444
C      -1.028350   -2.795412   -1.323497
O      -0.364124   -2.282806   -2.184727
H       1.034278    1.578767   -0.043675
H       0.821497   -0.675378   -0.176616
H      -1.177325   -2.648953    0.802947
H      -3.582771   -1.982796   -0.963203
H      -3.585413   -2.105219    0.818968
H      -1.343346   -3.861826   -1.379419
