17

C       0.050661    1.636368   -0.010891
C       1.569417    1.457632   -0.112725
O       1.980268    0.683044    1.026460
C       1.454893   -0.006160   -0.115445
C      -0.083061    0.074278    0.035781
C      -0.706378   -0.644444    1.254417
O      -1.833692   -1.330052    0.720843
C      -1.506874   -1.567656   -0.620115
O      -0.815964   -0.420172   -1.072991
H      -0.312128    2.203806    0.849371
H      -0.399750    2.012067   -0.932258
H       2.311419    2.106877   -0.560763
H       2.060049   -0.779631   -0.575066
H       0.013776   -1.346849    1.698212
H      -1.055686    0.037759    2.031117
H      -0.867928   -2.465210   -0.719557
H      -2.423007   -1.688599   -1.204051
