18

O       0.037356    0.172992    0.961467
C      -0.053059    1.039820    0.131483
O      -1.278605    1.468837   -0.236998
C      -1.585380    1.988805   -1.538149
C      -0.988677    3.354261   -1.865335
C       0.434793    3.274129   -2.414684
C       1.453706    2.710111   -1.451730
N       1.374102    3.132228   -0.059049
C       1.207530    1.693729   -0.380470
H      -1.303554    1.248063   -2.298686
H      -2.675985    2.048734   -1.526689
H      -1.629607    3.827616   -2.618082
H      -1.020925    3.980652   -0.969177
H       0.442828    2.662215   -3.326783
H       0.771936    4.275033   -2.712570
H       2.451547    2.627518   -1.884453
H       2.290639    3.294396    0.347267
H       2.046992    1.043927   -0.149314
