19

O       0.029893    1.487293   -0.111939
C       0.075017    0.075854    0.060136
C      -1.315828   -0.542865    0.066858
C      -2.088459   -0.578483   -1.272250
N      -1.296454   -1.427387   -2.198031
C      -2.213219   -2.060727   -1.212948
C      -1.455085   -2.090819    0.098191
C      -0.554724   -3.118338    0.657261
N      -1.899983   -2.886251    1.233861
H      -0.239183    1.655014   -1.020559
H       0.683990   -0.407441   -0.714298
H       0.565692   -0.091214    1.025795
H      -1.929435   -0.083498    0.849869
H      -2.791096    0.155785   -1.645652
H      -1.781908   -1.425582   -3.095048
H      -3.019899   -2.713165   -1.522304
H      -0.431369   -4.071641    0.151101
H       0.315207   -2.788634    1.219811
H      -1.823838   -2.347776    2.094129
