18

C      -0.291375    1.480818    0.054436
C      -0.000802   -0.001840    0.072182
C       1.340395   -0.546547   -0.264663
C       0.853041   -0.668267    1.173997
C       1.502524    0.149299    2.208885
O       2.101034    1.192933    2.015708
C       1.391986   -0.404591    3.653884
N       1.993089    0.407562    4.549306
O       0.823426   -1.450276    3.907555
H       0.568649    2.060267    0.394710
H      -0.538070    1.798577   -0.964598
H      -1.145432    1.724533    0.695118
H      -0.844841   -0.626438   -0.208853
H       1.421678   -1.466381   -0.832670
H       2.142230    0.168990   -0.416433
H       0.507300   -1.629697    1.528095
H       2.442407    1.244359    4.213780
H       2.004952    0.162472    5.524244
