20

C      -0.045071    0.926318   -0.914119
N      -0.250381    0.094426    0.263861
C      -1.467516   -0.648111    0.282384
C      -1.671802   -2.050397   -0.290211
N      -0.678765   -2.843643   -0.936681
C      -0.576172   -2.659997   -2.378140
C      -1.597350   -1.847032    1.224960
C      -0.414552   -2.294510    1.899469
N       0.571470   -2.641603    2.398905
H       0.897506    1.469750   -0.806027
H      -0.022643    0.378505   -1.870318
H      -0.849064    1.668472   -0.977884
H       0.556165   -0.482990    0.465963
H      -2.344454   -0.003075    0.264736
H      -2.673814   -2.264223   -0.658364
H       0.222865   -2.777310   -0.481152
H       0.190062   -3.334872   -2.769108
H      -1.528331   -2.934091   -2.846663
H      -0.331903   -1.634016   -2.698624
H      -2.507906   -1.950810    1.804026
