15

N      -0.716217   -1.010828   -0.717937
C      -0.413965    0.059659   -0.403879
C      -0.065812    1.404909    0.019328
C      -0.059952    1.693219    1.564816
C       1.364824    2.279108    1.448527
O       2.381145    1.493029    2.103814
C       2.844491    0.651254    1.143043
N       2.410242    0.736683   -0.046636
C       1.442838    1.834213   -0.043762
H      -0.695762    2.116827   -0.520836
H      -0.835001    2.383990    1.899566
H      -0.091936    0.793439    2.180272
H       1.503474    3.323130    1.726762
H       3.590580   -0.054968    1.488789
H       1.677881    2.560134   -0.824433
