21

C       0.075642    1.524003    0.209579
C      -0.057681    0.016524   -0.046318
C       0.669540   -0.443020   -1.275980
C       1.130828   -1.808490   -1.730968
C       0.467066   -1.627694   -3.086982
C       0.358707   -0.079788   -2.778609
C       1.621043    0.566587   -3.298397
C       2.654641    0.160019   -2.551712
C       2.152478   -0.673752   -1.424729
H       1.124215    1.807610    0.343406
H      -0.317674    2.102676   -0.632610
H      -0.475317    1.822054    1.107028
H       0.326481   -0.541841    0.817398
H      -1.120954   -0.248577   -0.128527
H       1.186009   -2.731698   -1.164611
H       1.009565   -1.915204   -3.994016
H      -0.523207   -2.090927   -3.086664
H      -0.587693    0.399550   -3.028517
H       1.674035    1.125074   -4.225177
H       3.703802    0.355677   -2.736642
H       2.749919   -0.838840   -0.534296
