16

O       0.341945    1.751916    0.071119
C       0.181403    0.539850   -0.640594
C       1.427624    0.242023   -1.505669
O       1.313931   -0.960629   -2.233036
C       0.899933   -0.831352   -3.584037
C      -0.492617   -0.413649   -3.766125
C      -1.633008   -0.068897   -3.927375
C      -0.112224   -0.587402    0.264637
N      -0.314219   -1.442516    1.014926
H       1.003835    1.617071    0.759431
H      -0.679607    0.682216   -1.298531
H       1.591539    1.109098   -2.158422
H       2.297992    0.139941   -0.845917
H       1.561609   -0.133053   -4.119875
H       1.045349   -1.822429   -4.025634
H      -2.643512    0.225734   -4.073065
