18

C      -0.105323    1.503330   -0.052553
C       0.012746    0.009098   -0.025251
C       0.916282   -0.869504   -0.898373
C       0.083490   -2.051298   -0.348741
O       0.448986   -2.096123    1.058594
C      -0.293366   -0.878227    1.207743
C      -0.622630   -0.415494    2.585894
C      -1.093453   -1.056116   -0.043957
H       0.821647    1.980603    0.286737
H      -0.314190    1.866817   -1.065437
H      -0.914644    1.858143    0.594362
H       0.726722   -0.693105   -1.961447
H       1.992909   -0.898161   -0.698295
H       0.041398   -3.030599   -0.820655
H       0.292231   -0.203602    3.150076
H      -1.223137    0.497739    2.556179
H      -1.187808   -1.180767    3.126938
H      -2.150186   -1.024586   -0.274412
