17

C       0.309241    1.202720   -0.394780
C       0.319030   -0.188948    0.176129
O       1.575394   -0.755985    0.520671
C       0.661121   -0.530629    1.590702
C       1.026794    0.562154    2.561168
O       1.808009    1.449732    2.337482
C       0.041655   -1.746529    2.219027
C       0.354121   -3.097628    1.744165
O       0.927054   -2.595982    2.953908
H       0.991519    1.854366    0.151256
H       0.621752    1.166271   -1.443548
H      -0.702687    1.619792   -0.361828
H      -0.359843   -0.897831   -0.304449
H       0.492984    0.490931    3.534467
H      -0.916711   -1.569878    2.711159
H      -0.381480   -3.890613    1.868924
H       1.049651   -3.210616    0.916657
