18

C       0.067869    1.528800   -0.337467
C       0.021055    0.048884   -0.021544
C       1.259911   -0.794703   -0.117139
C       0.676242   -0.480903    1.254411
C       1.364774    0.391848    2.157139
C       1.948536    1.113030    2.922757
N      -1.198416   -0.621176   -0.399084
C      -2.393485   -0.411100    0.224898
O      -2.554909    0.273088    1.210573
H       1.004548    1.970987    0.008220
H      -0.019656    1.693490   -1.416809
H      -0.757978    2.038703    0.164881
H       1.165237   -1.816053   -0.469942
H       2.183633   -0.297853   -0.388991
H       0.133925   -1.293158    1.726754
H       2.451886    1.753311    3.603690
H      -1.209147   -1.127674   -1.271760
H      -3.215882   -0.962725   -0.275221
