12

F      -0.495273    0.286993   -0.425185
C       0.016170    1.418392    0.065745
F       1.321788    1.216429    0.259120
F      -0.116138    2.373684   -0.880472
C      -0.680384    1.859953    1.315779
N      -0.758119    1.185293    2.437557
C      -1.484754    1.983983    3.283909
C      -1.845063    3.151670    2.657166
N      -1.321858    3.059546    1.391992
H      -1.707396    1.675771    4.293683
H      -2.406516    4.011917    2.980768
H      -1.388045    3.736913    0.650412
