17

N       0.531683    0.886781   -0.499327
C       0.007115    0.038176    0.431664
O       0.535693   -0.160562    1.513245
C      -1.258273   -0.704122    0.047957
C      -1.990951   -0.386127   -1.253373
C      -2.393288    1.010248   -1.404278
C      -2.688981    2.168624   -1.535009
C      -1.308234   -2.107929    0.560660
N      -2.119024   -1.065404    1.185383
H       1.302462    1.452175   -0.175978
H      -0.066891    1.298910   -1.199066
H      -1.363321   -0.678132   -2.105598
H      -2.882057   -1.021266   -1.288781
H      -2.981064    3.184391   -1.640876
H      -1.862080   -2.851546   -0.006729
H      -0.431202   -2.465637    1.089616
H      -1.640276   -0.757834    2.032082
