17

N       0.115663   -1.186330   -0.132185
C       0.034626   -0.038784   -0.024018
C      -0.031427    1.415197    0.109470
C       1.360791    2.048234    0.025221
C       2.139704    2.001384   -1.314985
C       2.615756    3.454349   -1.058206
C       1.478749    3.617152    0.008477
C       0.296354    4.295859   -0.499120
N      -0.652525    4.814160   -0.910573
H      -0.681059    1.816111   -0.676500
H      -0.508119    1.659837    1.066114
H       1.982489    1.670248    0.841040
H       2.900610    1.227482   -1.420903
H       1.460672    1.945414   -2.170669
H       3.595766    3.498646   -0.578928
H       2.596082    4.150180   -1.896855
H       1.767779    4.076960    0.956469
