18

C      -0.099611    1.516226    0.023229
C       0.032061    0.012551   -0.007144
C      -0.790424   -0.837985    0.939654
C       0.711078   -0.765250    1.100059
N       1.470962   -1.822766    0.480733
C       1.215232   -1.924236   -0.858033
O       1.455118   -2.860911   -1.591417
C       0.469786   -0.650046   -1.303180
O      -0.587908   -1.002863   -2.165060
H       0.815006    2.001770   -0.335393
H      -0.926107    1.843546   -0.616475
H      -0.297722    1.879468    1.036495
H      -1.404072   -0.304387    1.657764
H      -1.218546   -1.764775    0.572891
H       1.171880   -0.273073    1.948651
H       1.737185   -2.654462    0.988878
H       1.187839    0.010889   -1.818916
H      -0.276331   -1.783466   -2.646488
