17

C       0.032548    1.431680    0.029479
N       0.015371   -0.023684    0.003130
C      -0.021139   -0.808961   -1.120859
C      -0.049842   -0.283403   -2.515986
C      -0.023909   -2.111519   -0.650497
N       0.009008   -2.146434    0.702667
C       0.032102   -0.879339    1.091997
C       0.071717   -0.402251    2.473545
O       0.087490   -1.111896    3.452230
H       0.941932    1.804479    0.508126
H       0.003862    1.807229   -0.993175
H      -0.835985    1.823849    0.564906
H       0.835018    0.318428   -2.754976
H      -0.074604   -1.122918   -3.214086
H      -0.933809    0.334994   -2.712340
H      -0.048385   -3.014076   -1.244351
H       0.086977    0.706617    2.574234
