19

C       0.081743    1.373469    0.018402
O       0.089639   -0.049116   -0.042474
C       0.638993   -0.585962   -1.177122
C      -0.014546   -0.260735   -2.543223
O       0.520457   -1.289103   -3.399212
C       1.406559   -2.066256   -2.576143
C       2.606974   -1.177168   -2.217347
O       2.033853   -0.227970   -1.298025
C       0.675518   -2.117912   -1.231284
H       1.092286    1.779407   -0.089003
H      -0.567660    1.809144   -0.752432
H      -0.314899    1.635247    1.000912
H      -1.108996   -0.330948   -2.509250
H       0.279831    0.726430   -2.913577
H       1.637593   -2.997511   -3.091291
H       3.419379   -1.727971   -1.725550
H       3.000861   -0.663808   -3.100950
H       1.253566   -2.538096   -0.407197
H      -0.309936   -2.580336   -1.297383
