18

N      -0.057451    1.303191   -0.082016
C       0.062550   -0.040654    0.151719
O       1.111523   -0.575343    0.426591
C      -1.278205   -0.784893    0.105598
O      -1.035288   -2.153602   -0.024300
C      -2.206712   -2.936108    0.035298
C      -1.782128   -4.402747   -0.092390
C      -2.920912   -5.309313   -0.046045
C      -3.879541   -6.032910   -0.004878
H       0.791101    1.845038   -0.113192
H      -0.884105    1.698741   -0.495851
H      -1.825068   -0.558114    1.038212
H      -1.897729   -0.403880   -0.725994
H      -2.737653   -2.776544    0.987348
H      -2.902102   -2.671651   -0.777580
H      -1.232303   -4.526577   -1.032659
H      -1.075419   -4.632340    0.713404
H      -4.715846   -6.685973    0.030592
