23

C       0.903930    1.465437   -0.350085
C       0.099236    0.217314    0.002382
O       0.149169   -0.691707   -1.112032
C       0.703675   -1.931967   -0.716728
C       1.477452   -1.683032    0.586881
C       1.668759   -2.940806    1.432276
O       2.742993   -1.069943    0.319479
C       0.586343   -0.598289    1.229625
C       1.228265    0.198155    2.363573
H       1.960773    1.220031   -0.470895
H       0.529673    1.878622   -1.291255
H       0.800136    2.234563    0.422191
H      -0.951255    0.505558    0.149628
H      -0.086867   -2.683269   -0.554863
H       1.356752   -2.300871   -1.518139
H       2.250076   -3.692009    0.883375
H       2.214558   -2.703748    2.349584
H       0.710643   -3.395150    1.702131
H       3.275729   -1.693850   -0.184277
H      -0.288374   -1.126335    1.629722
H       2.151685    0.680245    2.039344
H       0.544328    0.969267    2.732896
H       1.469383   -0.455342    3.208195
