19

C      -0.139141    1.604478   -0.014937
C       0.025121    0.112441    0.048662
C      -0.716438   -0.870032   -0.856276
O      -0.812125   -1.864093    0.208565
C      -0.216098   -0.942223    1.133134
C       1.179507   -0.657091    0.681271
O       1.883880   -1.647857   -0.023462
C       2.119171    0.064124    1.621654
O       2.780942   -0.850907    2.470462
H       0.344694    2.013206   -0.910016
H      -1.198457    1.882730   -0.052819
H       0.302938    2.104212    0.850806
H      -1.717374   -0.527081   -1.139686
H      -0.184735   -1.251308   -1.734800
H      -0.594870   -0.920939    2.149617
H       1.270104   -2.390820   -0.117292
H       2.837602    0.656427    1.031379
H       1.567213    0.758110    2.262955
H       3.078493   -1.564359    1.891993
