17

C       0.039760    1.496830   -0.111225
O       1.483875    1.461152    0.132460
C       1.274260    0.226079    0.867540
C       1.755027   -1.209597    0.663363
O       0.620743   -1.864535    1.281308
C      -0.607820   -1.120787    0.932097
C       0.004277   -0.036794    0.063091
C       0.595182   -0.740520   -1.191587
O       1.763855   -1.437560   -0.711119
H      -0.478434    2.057462    0.676282
H      -0.200166    1.910561   -1.093897
H       1.125545    0.440439    1.931412
H       2.660495   -1.602495    1.120382
H      -1.289297   -1.810009    0.424155
H      -1.076310   -0.748498    1.849155
H      -0.113328   -1.463083   -1.612756
H       0.899287   -0.037965   -1.971371
