19

O      -0.201418    1.407612    0.118932
C      -0.028072    0.032747    0.086819
C      -0.858632   -0.908433   -0.800794
C      -0.997591   -1.884860    0.412235
C      -0.148430   -0.929155    1.266946
C       1.204629   -0.623290    0.650549
C       2.151480   -1.557225   -0.040560
C       2.522593   -2.870354    0.509245
O       1.663732   -2.765454   -0.628400
H       0.376430    1.803466   -0.542922
H      -1.811612   -0.448585   -1.071160
H      -0.375571   -1.296717   -1.700699
H      -2.026951   -1.936358    0.774366
H      -0.612007   -2.892822    0.268613
H      -0.329849   -0.699319    2.310553
H       1.748824    0.093547    1.266365
H       2.901373   -1.055330   -0.657530
H       3.509180   -3.286400    0.311029
H       2.040407   -3.214941    1.422522
