16

N       0.083177    1.236697   -0.257722
C       0.062768    0.009399    0.002008
O       1.058358   -0.840708    0.436849
C       0.146625   -1.992216    0.455152
C      -0.982688   -1.079124   -0.027016
C      -2.416898   -1.043233    0.546625
C      -2.877131   -0.233893   -0.687654
C      -1.987901   -1.409991   -1.152794
O      -2.690989   -2.300583   -0.194645
H       1.010717    1.637968   -0.110141
H       0.480163   -2.765886   -0.239727
H       0.049915   -2.398148    1.464378
H      -2.732637   -0.987359    1.588150
H      -3.934118   -0.342087   -0.931129
H      -2.487067    0.777824   -0.807530
H      -1.788313   -1.794680   -2.152677
