13

O      -0.108452    1.461729    0.314416
C       0.051787    0.097438   -0.057806
C      -1.294278   -0.537748    0.002886
C      -1.746448   -1.832927    0.127739
O      -1.002042   -2.950115    0.260134
N      -3.098157   -1.850451    0.094715
N      -3.533353   -0.619540   -0.040435
N      -2.453687    0.162960   -0.108368
H       0.714767    1.923287    0.130558
H       0.469824    0.017288   -1.074325
H       0.736771   -0.438352    0.615673
H      -1.621381   -3.686200    0.343820
H      -2.544806    1.165392   -0.162696
