21

O      -0.053149    1.450876   -0.019410
C       0.021568    0.030300    0.011292
C       0.752309   -0.520807    1.269932
C      -0.222273   -1.401334    2.073828
C      -1.421535   -0.552409    2.535829
C      -2.167207   -0.027821    1.276750
C      -1.417954   -0.506810    0.028233
O      -1.358380   -1.933045   -0.015326
C      -0.742365   -2.503348    1.145853
H       0.843578    1.796504   -0.063034
H       0.505985   -0.344754   -0.900833
H       1.639907   -1.096939    0.986400
H       1.088016    0.323901    1.881951
H       0.285353   -1.856967    2.930096
H      -2.086435   -1.160396    3.158110
H      -1.072012    0.275978    3.160516
H      -3.191823   -0.408024    1.236374
H      -2.217221    1.063387    1.265117
H      -1.938703   -0.204629   -0.883386
H       0.077094   -3.156066    0.813142
H      -1.478301   -3.133311    1.666730
