27

C      -0.925846    1.188771    0.186984
C      -0.589516   -0.305149    0.216912
C       0.409504   -0.669582    1.322318
C       0.795642   -2.163262    1.385206
C       1.759270   -2.538651    0.239225
C       1.867598   -4.041789   -0.037418
C       1.402195   -2.524471    2.755462
C       0.379565   -2.667225    3.877159
O       1.085280   -2.985487    5.068823
H      -0.029078    1.792510    0.008195
H      -1.646391    1.421410   -0.603489
H      -1.358306    1.517141    1.138885
H      -1.511154   -0.884520    0.362299
H      -0.196961   -0.604558   -0.762461
H       1.325920   -0.074018    1.199745
H      -0.018268   -0.359484    2.284129
H      -0.124300   -2.754806    1.252971
H       1.437691   -2.040177   -0.682339
H       2.753490   -2.131559    0.470062
H       2.223397   -4.598291    0.835322
H       0.894949   -4.459509   -0.321053
H       2.565182   -4.240346   -0.857293
H       1.949372   -3.471338    2.695444
H       2.137079   -1.762668    3.046369
H      -0.197337   -1.737081    3.999787
H      -0.339892   -3.461789    3.617439
H       0.446683   -3.065492    5.783126
