19

O      -0.009132    1.385552    0.024920
C      -0.043349    0.001294   -0.018716
C      -0.468953   -0.756079    1.216816
O      -0.818459    0.072513    2.283188
C      -1.989166   -0.343116    2.988400
C      -3.280553    0.133125    2.323953
C      -3.509866   -0.406034    0.911064
O      -2.514089    0.042595   -0.003474
C      -1.366663   -0.738850   -0.021288
H      -0.481255    1.643556    0.827181
H       0.761615   -0.401395   -0.624993
H       0.029536   -1.682959    1.502172
H      -1.986139   -1.437672    3.097258
H      -1.901957    0.091522    3.989400
H      -4.127793   -0.160922    2.958577
H      -3.273842    1.228652    2.282185
H      -3.557451   -1.505676    0.915104
H      -4.463820   -0.033288    0.523806
H      -1.444296   -1.664071   -0.595777
