18

N      -0.052820    1.314494    0.507667
C      -0.027337    0.129855    0.062158
C      -1.296476   -0.687495   -0.061470
C      -1.198365   -1.743630   -1.158523
C      -0.597205   -1.272772   -2.528588
C       0.668943   -2.080556   -2.238953
C       1.198867   -1.750646   -0.874739
O       1.153328   -0.451149   -0.314404
C       0.023088   -2.653585   -0.953500
H       0.894674    1.697730    0.536376
H      -1.486464   -1.182019    0.900275
H      -2.116069    0.016405   -0.222706
H      -2.140000   -2.281412   -1.274680
H      -1.159399   -1.676379   -3.372743
H      -0.471074   -0.194932   -2.673303
H       1.286920   -2.576923   -2.977945
H       2.149692   -2.205516   -0.620683
H       0.016421   -3.657800   -0.546483
