14

O       0.072471    1.343611   -0.056567
C       0.050701   -0.004369   -0.012905
C       0.033541   -0.703032   -1.221077
C       0.010934   -2.090196   -1.218556
C       0.004914   -2.810269   -0.019965
C       0.021799   -2.127414    1.184662
C       0.044750   -0.724619    1.199748
C       0.062701    0.019632    2.414837
N       0.078148    0.695778    3.356973
H       0.082619    1.702411    0.841777
H       0.038377   -0.136082   -2.144446
H      -0.002225   -2.620083   -2.165126
H      -0.012798   -3.893420   -0.030843
H       0.017624   -2.659758    2.128580
