21

C      -0.033992    1.611288   -0.095034
C       0.026541    0.095506    0.019577
C       0.980257   -0.700603   -0.916472
C       1.388289   -1.617281    0.275699
C       2.885704   -1.693474    0.618927
C       3.085629   -0.472389    1.489884
C       1.939349    0.131205    1.806898
C       0.735413   -0.580986    1.236896
O      -0.111174   -1.125821    2.235741
H       0.965706    2.053535   -0.023721
H      -0.464906    1.917234   -1.054863
H      -0.653146    2.050787    0.696204
H      -0.981791   -0.329515   -0.033323
H       0.523333   -1.190787   -1.778779
H       1.819114   -0.091412   -1.268100
H       0.878558   -2.581508    0.267248
H       3.156760   -2.609613    1.160761
H       3.513683   -1.670599   -0.280829
H       4.067914   -0.147721    1.818911
H       1.851445    1.017062    2.429449
H      -0.274304   -0.447716    2.899709
