23

C      -0.239787    1.527103   -0.005850
C      -0.010472    0.009869    0.005887
C       0.521163   -0.483422   -1.355287
O       1.663355    0.208102   -1.827856
C       2.908848   -0.165935   -1.266002
C       3.128767    0.368271    0.154570
C       2.352895   -0.393840    1.215809
C       1.490978    0.312035    2.233950
C       0.845068   -0.529781    1.159153
H       0.685311    2.081184   -0.181146
H      -0.931361    1.796346   -0.811334
H      -0.674063    1.866323    0.938697
H      -0.999619   -0.456933    0.117428
H       0.725734   -1.565520   -1.303214
H      -0.246938   -0.325041   -2.121855
H       3.018620   -1.263628   -1.279786
H       3.664670    0.251827   -1.940459
H       4.200605    0.318548    0.387286
H       2.865085    1.431553    0.158108
H       2.869442   -1.282595    1.570530
H       1.474514   -0.048801    3.257011
H       1.416224    1.391019    2.147769
H       0.491604   -1.497618    1.506447
