21

O      -0.090704    1.447558    0.086907
C      -0.009802    0.027415   -0.005000
C       0.881928   -0.529172    1.120850
C       0.837240   -2.047777    1.323318
O      -0.353522   -2.547041    1.908158
C      -1.590104   -2.229971    1.292706
C      -1.559395   -2.016172   -0.246882
C      -1.451320   -0.486119    0.006052
C      -2.030096   -0.741311    1.426839
H       0.804232    1.793873    0.164556
H       0.433188   -0.259336   -0.975394
H       1.923208   -0.252176    0.904744
H       0.612498   -0.032770    2.059577
H       1.050388   -2.557971    0.370831
H       1.627052   -2.341164    2.021636
H      -2.288518   -2.979194    1.673346
H      -0.777196   -2.510884   -0.828309
H      -2.526208   -2.278182   -0.683951
H      -2.036159    0.157779   -0.654670
H      -3.120378   -0.656012    1.438302
H      -1.625120   -0.173688    2.266499
