21

O       0.202322    0.962982   -0.631739
C      -0.018137   -0.372705   -0.204137
C      -1.480458   -0.499550    0.182255
C      -2.492111   -0.422019   -0.999064
C      -2.784090   -1.941365   -0.839613
O      -4.145232   -2.341020   -0.744780
C      -2.217685   -2.822234   -1.948121
O      -2.325901   -4.192297   -1.621991
C      -1.959689   -1.951197    0.481396
H       1.119099    1.044190   -0.910294
H       0.228926   -1.090211   -1.003910
H       0.612696   -0.626869    0.663691
H      -1.680281    0.217271    0.982770
H      -3.373045    0.186296   -0.777074
H      -2.087225   -0.097205   -1.962045
H      -4.523048   -1.958901    0.053102
H      -2.747985   -2.581573   -2.884406
H      -1.155542   -2.609939   -2.101953
H      -3.239346   -4.313372   -1.334938
H      -1.195955   -2.730547    0.554257
H      -2.594949   -2.015728    1.370397
