25

C       1.095712    0.968067    0.287348
C       1.090482   -0.558469    0.140664
C       1.572361   -1.023789   -1.228978
C       3.089978   -0.983942   -1.625784
C       4.118134   -0.994212   -0.496092
C       2.893091   -2.353952   -2.342217
C       1.515342   -2.526831   -1.629002
C       1.518383   -3.544802   -0.492075
O       0.401503   -2.756210   -2.481694
H       2.100415    1.381585    0.149560
H       0.443934    1.435599   -0.459030
H       0.743737    1.274885    1.277352
H       1.701323   -1.003843    0.935045
H       0.069574   -0.930395    0.297189
H       1.002519   -0.491761   -1.999012
H       3.333588   -0.163694   -2.306906
H       3.952618   -1.809705    0.215617
H       5.126668   -1.121982   -0.905036
H       4.108216   -0.056902    0.070345
H       2.756506   -2.254166   -3.421423
H       3.650674   -3.119754   -2.145651
H       2.341201   -3.383648    0.209127
H       0.576960   -3.507599    0.064283
H       1.635234   -4.558012   -0.898791
H       0.377366   -3.694858   -2.698324
