17

C      -0.019772    1.461522    0.088892
N      -0.006607    0.021836    0.027912
C      -1.085394   -0.965089    0.022086
C       0.016820   -2.082157    0.003342
C       0.120218   -2.964336    1.251499
C       0.039058   -2.864158   -1.223687
N       0.051051   -3.487359   -2.197512
C       1.026430   -0.870889    0.002630
O       2.219804   -0.755528    0.017085
H       1.017712    1.802902    0.089024
H      -0.534955    1.891200   -0.777856
H      -0.511585    1.818437    1.001525
H      -1.700826   -0.963436    0.928539
H      -1.726245   -0.927217   -0.863876
H      -0.696030   -3.690563    1.288514
H       1.068839   -3.506305    1.247624
H       0.082528   -2.344163    2.151567
