19

C      -0.040592    1.479167    0.102385
C       1.298729    0.729274   -0.032159
C       2.177880    0.556982    1.154015
C       2.012426   -0.440733    2.025597
C       0.956372   -1.518124    1.885658
C      -0.285196   -1.036622    1.114992
C      -0.816403   -1.873098   -0.075799
O      -0.560137   -0.793344   -1.009877
C       0.004142   -0.006050    0.032206
H      -0.282437    1.953934    1.048589
H      -0.385845    2.004672   -0.782173
H       1.782807    0.831136   -0.999678
H       2.970029    1.286460    1.307995
H       2.681512   -0.524086    2.878052
H       1.403122   -2.378373    1.365878
H       0.672934   -1.891198    2.875638
H      -1.074105   -0.726585    1.805020
H      -0.223087   -2.764289   -0.315768
H      -1.878406   -2.139919   -0.051233
