21

C       0.086159    1.606813    0.258545
C       1.523458    1.579320   -0.327195
C       1.253165    0.138047   -0.859959
C       2.337621   -0.881957   -0.676482
C       2.141677   -2.123435   -0.232130
C       0.766262   -2.669176    0.091095
O       0.147318   -2.113307    1.248153
C       0.197970   -0.700696    1.365058
C      -0.016301    0.067698    0.062995
H      -0.021575    1.974992    1.283131
H      -0.615507    2.153022   -0.376723
H       1.776062    2.340502   -1.068972
H       2.291460    1.589923    0.451334
H       0.956375    0.187443   -1.915746
H       3.349175   -0.547221   -0.904375
H       2.991003   -2.786395   -0.091986
H       0.107467   -2.536511   -0.781352
H       0.818738   -3.743145    0.288996
H      -0.594153   -0.442614    2.077639
H       1.153378   -0.388996    1.816068
H      -0.930478   -0.285915   -0.422439
