19

C      -0.276346    1.534941   -0.009893
C       0.186992    0.090977   -0.158266
O       1.020372   -0.012981   -1.326145
C       2.322602   -0.399439   -0.915559
O       2.405138   -0.153545    0.465600
C       1.098516   -0.454029    0.968581
C       0.944756    0.131368    2.358369
C       2.578588   -1.815468   -1.245495
C       2.808354   -2.961778   -1.522773
H       0.571711    2.199989    0.176493
H      -0.764322    1.856392   -0.933845
H      -0.994348    1.638637    0.809898
H      -0.678474   -0.567791   -0.297166
H       3.059016    0.239508   -1.415674
H       0.979936   -1.547121    1.011980
H       1.102457    1.212254    2.354977
H      -0.055827   -0.076772    2.749656
H       1.674761   -0.320427    3.034975
H       3.011145   -3.974914   -1.769631
