16

N      -0.041112    1.328097    0.213090
C       0.054633    0.022025   -0.168420
O       1.092819   -0.468809   -0.564918
C      -1.251601   -0.770751   -0.076777
C      -0.992986   -2.272768    0.047461
C      -2.297775   -3.086028   -0.045603
C      -2.075920   -4.523986    0.093439
N      -1.889675   -5.658575    0.207893
H       0.769442    1.916235    0.108491
H      -0.906502    1.744019    0.508095
H      -1.861807   -0.404686    0.758084
H      -1.823748   -0.561705   -0.991668
H      -0.299032   -2.579347   -0.738257
H      -0.496155   -2.488526    0.998417
H      -3.004694   -2.772109    0.732083
H      -2.791962   -2.904294   -1.007693
