22

C      -0.608203    1.357363   -0.112606
C       0.022206   -0.023253    0.015026
C       1.291724   -0.344430   -0.855105
C       1.849327    0.714358   -1.797844
N       2.039808   -0.531170    0.399491
C       3.202582   -1.168001    0.664386
O       3.579785   -1.487595    1.775544
C       0.886826   -0.332315    1.289550
C       1.073605    0.724396    2.369232
H       0.113469    2.167048    0.021715
H      -1.069081    1.483256   -1.097818
H      -1.395094    1.489682    0.636878
H      -0.752989   -0.779505   -0.130032
H       1.175739   -1.287856   -1.404961
H       2.006288    1.667850   -1.287266
H       2.811479    0.390920   -2.207748
H       1.168128    0.875902   -2.639876
H       3.795257   -1.358894   -0.254971
H       0.596256   -1.277204    1.765678
H       1.384565    1.684805    1.949034
H       0.142905    0.872736    2.926858
H       1.845629    0.390714    3.066869
