25

C      -0.116469    1.509025    0.182404
C      -0.015516   -0.014733    0.047135
C       0.682784   -0.555735   -1.224911
C       0.672724   -2.094182   -1.169602
C       0.004136   -0.057871   -2.526883
C      -1.484287   -0.385673   -2.689365
C       2.164581   -0.069187   -1.290352
C       2.978209   -0.408423   -0.128941
C       3.645273   -0.686785    0.832514
H       0.869308    1.983673    0.211764
H      -0.682794    1.962675   -0.637258
H      -0.627035    1.771660    1.114311
H       0.521321   -0.410902    0.916531
H      -1.022608   -0.445099    0.094974
H      -0.345098   -2.484427   -1.078592
H       1.118405   -2.525587   -2.073326
H       1.245566   -2.453179   -0.309563
H       0.135848    1.028454   -2.603781
H       0.553924   -0.483306   -3.377116
H      -1.672258   -1.463185   -2.666250
H      -2.093412    0.075515   -1.905843
H      -1.850882   -0.011201   -3.650381
H       2.629294   -0.496990   -2.188528
H       2.184753    1.018209   -1.433016
H       4.241297   -0.929502    1.676917
