24

C      -0.243647    1.656592   -0.307148
C       0.042646    0.175606   -0.029598
C       0.815090   -0.543205   -1.155108
C       2.292902   -0.140012   -1.147306
O       2.900911   -0.636031   -2.333970
C       0.652543   -2.088049   -1.147559
C       0.955266   -2.734616    0.213268
C      -0.733409   -2.515395   -1.651393
H       0.674009    2.240509   -0.429799
H      -0.834439    1.776536   -1.221994
H      -0.809043    2.107318    0.514836
H       0.593891    0.080536    0.915243
H      -0.913245   -0.334836    0.132026
H       0.414818   -0.191087   -2.116634
H       2.381741    0.955478   -1.097816
H       2.788414   -0.545193   -0.250134
H       3.840606   -0.437176   -2.296766
H       1.390190   -2.464057   -1.865458
H       0.218027   -2.448242    0.971300
H       0.929600   -3.826250    0.130582
H       1.945345   -2.460753    0.591662
H      -0.935900   -2.109832   -2.648308
H      -0.804328   -3.606547   -1.714399
H      -1.535487   -2.178020   -0.984602
