14

N       0.116750    1.358287    0.189934
C      -0.064048   -0.006367    0.058784
C      -1.225755   -0.700419    0.005739
N      -1.252369   -2.073834   -0.007833
C      -0.125236   -2.713159    0.023160
N      -0.057808   -4.081603    0.084005
C       1.187195   -2.039927    0.021192
O       2.260036   -2.586670   -0.027378
O       1.124770   -0.666271    0.056740
H       0.958528    1.699963   -0.255254
H      -0.695487    1.904965   -0.057022
H      -2.178405   -0.185908   -0.017127
H      -0.892617   -4.578533   -0.182911
H       0.825422   -4.484677   -0.187680
