21

C       0.115680    1.515629    0.087953
C      -0.044038    0.002117   -0.030901
C      -1.494761   -0.461581   -0.033758
O      -2.417336    0.316119   -0.117965
C      -1.731091   -1.972993    0.077341
C      -1.664596   -2.393347    1.561748
C      -3.083633   -2.363135   -0.554979
C      -3.180339   -3.858841   -0.739123
O      -3.955616   -4.582379   -0.168596
H       1.170421    1.798783    0.034181
H      -0.424865    2.025753   -0.712557
H      -0.290315    1.878446    1.036142
H       0.404266   -0.367194   -0.965397
H       0.496355   -0.524497    0.766023
H      -0.917040   -2.480911   -0.458759
H      -2.422401   -1.858057    2.142296
H      -1.857666   -3.464601    1.667005
H      -0.684941   -2.183029    1.999701
H      -3.914365   -2.014240    0.061683
H      -3.168882   -1.889638   -1.541208
H      -2.439285   -4.277195   -1.462887
