17

N      -0.087816    1.459946    0.194197
C      -0.032685    0.041587    0.023680
C      -1.375389   -0.679768   -0.013262
N      -2.061117   -0.197045   -1.240235
C      -1.092902   -1.312256   -1.326806
C       0.284229   -0.609557   -1.446290
N       0.500976    0.367661   -2.494240
C       1.390329   -1.553227   -1.381900
N       2.254959   -2.318135   -1.310338
H       0.807115    1.887966   -0.019136
H      -0.775710    1.856321   -0.438369
H       0.646408   -0.402915    0.754683
H      -1.944653   -1.052317    0.828151
H      -2.998184   -0.594705   -1.254506
H      -1.376062   -2.283814   -1.712383
H       0.791002   -0.084733   -3.355955
H      -0.388281    0.827637   -2.672802
