15

C       0.061472    1.483533   -0.012290
C       1.292659    0.659676    0.043510
C       1.921757    0.343812    1.409546
N       0.811771   -0.354277    2.039337
N       0.619621   -0.897340    3.253756
N      -0.573846   -1.435041    3.219233
C      -1.144196   -1.246890    1.988603
C      -0.247116   -0.545955    1.221682
N      -0.050135    0.000519   -0.066286
H      -0.278808    1.973532    0.896100
H      -0.202196    1.983694   -0.938345
H       1.927726    0.582493   -0.831711
H       2.793180   -0.310405    1.310939
H       2.210884    1.231555    1.978607
H      -2.127539   -1.616984    1.754726
