21

C      -0.167785    1.597042    0.155090
C       0.046133    0.077578    0.180857
C       0.805121   -0.337770    1.449341
C      -1.306177   -0.648883    0.044729
C      -1.205957   -2.154027   -0.199432
C      -2.534130   -2.892404    0.010339
O      -3.542179   -2.370914    0.403174
C      -0.705417   -2.521543   -1.593684
O      -0.337476   -3.624927   -1.902209
H       0.784229    2.131904    0.231184
H      -0.660784    1.916184   -0.769014
H      -0.796714    1.916083    0.994652
H       0.669381   -0.186522   -0.686872
H       1.027769   -1.409249    1.473665
H       1.759891    0.192555    1.521229
H       0.222352   -0.097996    2.346607
H      -1.913084   -0.477233    0.940171
H      -1.875296   -0.204799   -0.782557
H      -0.513880   -2.647387    0.498078
H      -2.482453   -3.974568   -0.231780
H      -0.745970   -1.692802   -2.335976
