16

C      -0.038567    1.541846   -0.047512
C       0.031314    0.041550   -0.052104
C       0.150921   -0.701898    1.252092
C       1.447693   -0.425541    2.008192
O       2.319531    0.312636    1.607012
C       1.569209   -1.130114    3.274601
C       1.651672   -1.725225    4.317608
N      -0.009717   -0.706051   -1.088644
O      -0.115990    0.027225   -2.276563
H       0.972739    1.956836    0.008968
H      -0.519573    1.911251   -0.953112
H      -0.586085    1.898727    0.830372
H      -0.679906   -0.451791    1.927602
H       0.087082   -1.780386    1.070402
H       1.742994   -2.242211    5.242145
H      -0.169618   -0.669825   -2.938671
