20

C       0.165190    1.532515   -0.109488
C      -0.127118    0.041165    0.099207
C       0.627129   -0.552384    1.255577
C       2.058591   -1.012651    1.196682
C       0.962288   -2.004989    1.547165
N       0.711917   -2.202303    2.954211
C       0.338797   -1.070439    3.411233
C       0.002670   -0.741434    4.823811
O       0.225953   -0.034118    2.525374
H       1.228283    1.699719   -0.310476
H      -0.406361    1.928679   -0.954021
H      -0.101879    2.107083    0.781929
H      -1.200903   -0.111234    0.262480
H       0.137405   -0.523805   -0.802077
H       2.491429   -1.097795    0.205476
H       2.747538   -0.714351    1.980046
H       0.748010   -2.837139    0.886610
H       0.026567   -1.650357    5.424232
H       0.718624   -0.020309    5.231503
H      -0.989656   -0.283634    4.881615
