23

C      -0.178470    0.757766   -2.016467
C       0.023195   -0.341095   -0.995302
C       1.359671   -0.624463   -0.331797
C       2.608182    0.182866   -0.618656
C       0.227426   -0.056227    0.474326
C       0.090949    1.307029    1.170516
C      -1.031798    0.690608    2.056875
C      -0.583394   -0.726368    1.597476
O      -1.552784   -1.691514    1.270780
H       0.400655    1.655135   -1.783036
H       0.120953    0.424874   -3.016571
H      -1.231879    1.056305   -2.071794
H      -0.564935   -1.235620   -1.194639
H       1.554957   -1.681129   -0.155143
H       2.393434    1.248594   -0.735155
H       3.329200    0.084905    0.200737
H       3.102500   -0.158185   -1.535242
H       0.980337    1.580757    1.746574
H      -0.193105    2.161867    0.551916
H      -1.014191    0.903540    3.128038
H      -2.029100    0.925985    1.670574
H       0.065261   -1.208397    2.337115
H      -2.141630   -1.300217    0.615965
