12

O       1.911786    4.177356    0.056654
C       1.063067    3.334302    0.052844
N       1.259922    1.952089   -0.036495
C       2.434680    1.233481   -0.140248
C       2.389449   -0.168693   -0.226742
N       3.497415   -0.864438   -0.326237
N       4.667688   -0.207066   -0.343286
N       4.707286    1.095940   -0.262331
N       3.611950    1.847396   -0.159649
H      -0.021924    3.546098    0.121585
H       0.414178    1.398809   -0.026637
H       1.453854   -0.725538   -0.215352
