18

C      -0.043165    1.617982   -0.129703
C       0.062495    0.101591   -0.084676
N      -1.203006   -0.553138   -0.360894
C      -2.151604   -0.189656   -1.272102
O      -2.206259    0.836240   -1.916264
C       1.311618   -0.673217   -0.654569
C       2.190849   -0.146990    0.498133
C       0.836874   -0.609434    1.079390
O       0.939392   -1.819920    0.224799
H       0.881142    2.098678    0.190964
H      -0.301180    1.955619   -1.132456
H      -0.846357    1.946242    0.536991
H      -1.193264   -1.532147   -0.109339
H      -2.931489   -0.975606   -1.345385
H       1.570839   -0.902117   -1.688525
H       3.017204   -0.808911    0.753580
H       2.468919    0.905307    0.530730
H       0.533644   -0.755324    2.117496
