22

C       0.187025    1.546114    0.011620
C       0.078956    0.033171    0.053939
N       0.984159   -0.705441   -0.871107
C       0.399303   -1.290439   -2.056568
C       1.438675   -1.612595    0.204500
C       2.722731   -1.101252    0.868663
O       1.963799   -0.180125    1.695161
C       0.699137   -0.738618    1.252623
C      -0.169413   -1.179275    2.399961
H       1.203878    1.854100    0.264791
H      -0.056790    1.923855   -0.986801
H      -0.507043    2.006629    0.723452
H      -0.969764   -0.285569   -0.077993
H       0.045244   -0.496146   -2.722406
H       1.154409   -1.866669   -2.601985
H      -0.457363   -1.960676   -1.847470
H       1.286174   -2.683162    0.046241
H       3.253238   -1.836895    1.488038
H       3.423822   -0.587861    0.203466
H      -0.462404   -0.311897    3.002992
H      -1.080094   -1.667742    2.039959
H       0.368166   -1.874026    3.051994
