19

C      -0.193649    1.615839   -0.056340
C      -0.031546    0.107651    0.030143
C       1.183310   -0.595912   -0.707126
C       2.194549   -0.197063    0.409814
C       2.562616   -1.611794    0.916984
C       2.247593   -1.530496    2.444440
O       1.012636   -0.741261    2.495803
C       0.851324   -0.524964    1.123858
C       1.164158   -1.793338    0.282781
H       0.758550    2.134658    0.091569
H      -0.586934    1.906312   -1.036464
H      -0.894684    1.979709    0.702078
H      -0.989345   -0.404947   -0.121484
H       1.360824   -0.627469   -1.780231
H       2.755712    0.731295    0.508318
H       3.457506   -2.166494    0.629496
H       2.060224   -2.510711    2.896403
H       3.024519   -1.011054    3.016189
H       0.528633   -2.678159    0.239433
