19

C       0.670184   -0.189823    1.238560
O      -0.128327    0.077227    0.096338
C      -1.318706   -0.681374    0.008443
C      -2.401215   -0.066955    0.886423
O      -2.583918    1.297682    0.553050
C      -1.712839   -1.093588   -1.439407
C      -0.507175   -2.060572   -1.498200
C      -1.225553   -2.237714   -0.137541
O      -2.520424   -2.188026   -0.851385
H       1.529978    0.481574    1.186478
H       0.134001   -0.004056    2.178232
H       1.030849   -1.227718    1.241384
H      -3.347250   -0.581873    0.720838
H      -2.133289   -0.186682    1.949699
H      -1.698058    1.670261    0.465456
H      -2.172622   -0.489262   -2.220250
H      -0.634950   -2.900027   -2.181606
H       0.493933   -1.631110   -1.512064
H      -1.106334   -3.010572    0.622690
