17

O      -0.250528   -0.016878   -0.021789
C      -0.183323    1.172750    0.052389
C      -1.170898    2.308284   -0.098335
N      -0.913012    3.188183    1.097817
C      -0.032991    3.290779   -0.068192
C       1.024121    2.181219    0.108057
C       1.932443    2.212659    1.303402
C       3.133688    1.343568    1.343917
N       3.282919    2.803356    1.209361
H      -2.125623    2.335468   -0.607126
H      -1.603292    3.937362    1.044955
H       0.064054    4.204954   -0.638946
H       1.598687    2.027734   -0.815313
H       1.426123    2.441735    2.236131
H       3.473019    0.932268    2.289894
H       3.334634    0.713720    0.480825
H       3.490652    3.035838    0.240138
