18

C       0.075882    1.564938    0.024864
O       1.166627    0.670618   -0.199738
C      -0.126985    0.109830    0.063992
C      -0.275467   -0.636654    1.323483
C      -0.179441   -2.075106    1.682947
C       0.617117   -1.765696    2.948486
C       0.001229   -0.344156    2.854286
C      -1.497862   -0.627610    3.036745
N      -1.512054   -1.370747    1.731373
H       0.116685    2.126472    0.957123
H      -0.255894    2.130454   -0.844827
H      -0.600653   -0.369252   -0.793843
H      -0.126384   -2.940215    1.034972
H       0.416638   -2.342254    3.858023
H       1.688492   -1.761895    2.735231
H       0.503127    0.515968    3.292409
H      -1.812582   -1.210243    3.910622
H      -2.131158    0.256796    2.932217
