20

C      -0.302495    1.348977    0.193542
O       0.159243    0.048965   -0.107373
C       0.747021   -0.602647    0.986334
C      -0.125763   -1.315629    2.045789
C      -1.051926   -2.258062    1.258917
C       0.241981   -2.972947    0.914268
N       0.963878   -2.433047    2.123767
C       1.336071   -1.970714    0.728401
C       2.654569   -2.286869    0.094656
H       0.512044    1.992658    0.560295
H      -0.700613    1.775013   -0.730218
H      -1.100915    1.339960    0.950460
H       1.490496    0.044830    1.476871
H      -0.443526   -0.818973    2.960225
H      -1.669081   -2.862109    1.928507
H      -1.657132   -1.831937    0.454323
H       0.374481   -4.003624    0.603097
H       2.926091   -3.333111    0.264556
H       2.613478   -2.115823   -0.986459
H       3.450322   -1.659779    0.510083
