20

C      -0.254798    1.468169   -0.125778
C       0.028044   -0.000894    0.070917
C      -1.125330   -0.923039    0.518239
O      -0.292944   -1.564506    1.515255
C       0.802418   -0.667701    1.248586
C       1.822091   -1.188920    0.211693
C       1.615879   -2.596240   -0.393322
C       0.824065   -1.890586   -1.532155
N       1.043010   -0.542862   -0.911275
H       0.677855    2.028358   -0.233042
H      -0.837543    1.621223   -1.042038
H      -0.822923    1.882585    0.713736
H      -1.951711   -0.374147    0.989309
H      -1.543218   -1.633211   -0.202700
H       1.164563   -0.168791    2.152137
H       2.851808   -0.843730    0.353178
H       2.531911   -3.099700   -0.707340
H       1.027334   -3.265637    0.235367
H       1.299763   -1.941158   -2.516447
H      -0.221029   -2.188567   -1.653080
