16

O       0.031017    1.351676   -0.091875
C      -0.001437   -0.033745   -0.051369
C      -0.506755   -0.766906   -1.267802
C      -1.352649   -0.749690   -0.003034
C      -1.415273   -1.979367    0.811795
C      -0.306831   -2.508808    1.338291
N       0.942140   -1.878675    1.235311
C       1.117746   -0.604653    0.756659
O       2.117889    0.058207    0.990166
H       0.931522    1.580224    0.189695
H      -0.819626   -0.113131   -2.073407
H      -0.053212   -1.705775   -1.565470
H      -2.225820   -0.106357   -0.021034
H      -2.365798   -2.478441    0.954165
H      -0.294922   -3.439711    1.890531
H       1.714336   -2.229297    1.782741
