21

C      -0.051801    1.498438    0.039553
C       0.021063   -0.009991    0.052925
C       0.971083   -0.818960   -0.885341
C       0.718239   -1.939950    0.148087
O       1.615844   -3.005693    0.194612
C       0.661960   -0.812977    1.226868
C      -0.776720   -2.245086   -0.078791
C      -1.304221   -0.776224   -0.149255
O      -2.210188   -0.423293    0.884126
H       0.930922    1.947036    0.216374
H      -0.418476    1.865487   -0.926790
H      -0.737516    1.856655    0.813230
H       0.663429   -0.992356   -1.921742
H       1.997649   -0.447639   -0.849207
H       1.315115   -3.625607    0.867829
H       1.659263   -0.447144    1.481138
H       0.058655   -0.969499    2.124066
H      -0.944239   -2.817151   -0.996306
H      -1.230077   -2.781723    0.762189
H      -1.740857   -0.546066   -1.132374
H      -3.029340   -0.907835    0.744860
