18

C       0.228760    1.594445   -0.242354
C       0.118337    0.096888   -0.016668
C       0.580519   -0.845289   -1.157882
O       1.687608   -0.328728   -1.918430
C       2.643421   -1.095067   -1.142290
C       1.542309   -1.602611   -0.201410
C       1.146371   -0.621941    0.954242
C       2.213632    0.179557    1.527676
N       3.069600    0.822950    1.965523
H       1.213924    1.858856   -0.632275
H      -0.520671    1.923891   -0.969320
H       0.063892    2.145726    0.688316
H      -0.894893   -0.170295    0.299976
H      -0.182289   -1.304504   -1.792107
H       3.104023   -1.882502   -1.750945
H       3.426499   -0.469169   -0.701348
H       1.500810   -2.665035    0.029040
H       0.633430   -1.139739    1.768181
