17

O       0.042349    1.492306   -0.085173
C       0.029673    0.087208    0.015640
C       0.150441   -0.623059    1.397746
C      -0.910263    0.122930    2.231871
C      -2.075258   -0.388612    1.368346
O      -1.997369   -1.827219    1.602200
C      -0.819487   -1.761076    0.799504
C      -1.342175   -0.578413   -0.041269
O      -2.084056   -0.747761   -1.194709
H       0.954334    1.797122   -0.047019
H       0.685891   -0.379120   -0.732425
H       1.117439   -0.858010    1.835934
H      -1.005072   -0.229009    3.260666
H      -0.769501    1.204227    2.204894
H      -3.079285    0.021585    1.465142
H      -0.425503   -2.708051    0.437602
H      -2.370548    0.121788   -1.496392
