15

O      -0.012100   -0.046901    0.002385
C      -0.017792    1.158890    0.009015
C      -1.196763    2.160384    0.032094
N      -0.628603    3.518712    0.031289
C       0.632723    3.343838    0.011852
C       1.857444    4.230056   -0.001112
C       2.978902    3.200766   -0.023244
C       2.477595    1.959233   -0.022825
N       1.077430    2.012822   -0.002104
H      -1.841986    2.005562   -0.839559
H      -1.815956    1.995708    0.920658
H       1.863569    4.890144   -0.876294
H       1.889267    4.880315    0.880848
H       4.028507    3.452874   -0.037187
H       2.976350    1.001976   -0.035458
