20

O      -0.412425    0.114980    0.294474
C      -0.090254    1.238606    0.011364
C       1.347848    1.713128   -0.137736
N       1.455607    2.706893   -1.176655
C       1.541835    2.268369   -2.588985
C       2.552973    3.411232   -2.859172
C       2.669201    3.517830   -1.336548
C       3.082448    4.667319   -0.481391
C       3.934244    3.406689   -0.531259
H      -0.837873    2.046230   -0.157434
H       1.610621    2.180346    0.823768
H       2.002769    0.834181   -0.266890
H       1.993506    1.270993   -2.701188
H       0.591110    2.290241   -3.130254
H       3.460052    3.141633   -3.401525
H       2.097849    4.290267   -3.321179
H       3.451898    5.565872   -0.965294
H       2.514910    4.850902    0.425976
H       3.939699    2.772955    0.349772
H       4.883642    3.441411   -1.056692
