18

O       0.308137    1.329671    0.072199
C       0.050128   -0.024634   -0.040447
C      -1.339086   -0.666104    0.023008
C      -2.560769    0.166289   -0.266281
N      -2.291639    1.601696   -0.574258
C      -2.514039    0.640678   -1.676770
C      -1.240340    0.118223   -2.328789
C      -0.504199   -0.711446   -1.259329
O       0.054529   -1.924213   -1.676387
H      -0.537002    1.782819   -0.122530
H       0.815189   -0.612135    0.464449
H      -1.462697   -1.551061    0.636203
H      -3.493009   -0.073384    0.232029
H      -3.127355    2.156798   -0.415931
H      -3.409930    0.764570   -2.275762
H      -1.494017   -0.557570   -3.150692
H      -0.624764    0.930568   -2.730587
H       0.973850   -1.761504   -1.914239
