17

N      -0.084559    1.270654   -0.019921
C       0.007687   -0.082222   -0.021026
O       1.067238   -0.680690   -0.067849
C      -1.332787   -0.817785    0.041826
N      -1.068042   -2.233198    0.032908
C      -2.052685   -3.151862    0.079684
O      -3.241372   -2.859546    0.133129
C      -1.628995   -4.623927    0.063491
O      -2.761370   -5.439991    0.117200
H       0.763237    1.811854   -0.060407
H      -0.966651    1.750967    0.018279
H      -1.880095   -0.521217    0.946207
H      -1.960318   -0.525222   -0.810237
H      -0.087616   -2.480846   -0.011155
H      -1.041504   -4.815651   -0.848752
H      -0.960471   -4.811863    0.918956
H      -3.505465   -4.813954    0.149589
