22

C      -0.093199    1.549879    0.070640
C      -0.011960    0.022361   -0.025742
C       0.759454   -0.503377   -1.247495
C       2.239046   -0.081479   -1.252839
O       2.937390   -0.673356   -2.335631
C       3.117581   -2.069080   -2.174404
C       1.836933   -2.803987   -1.802492
N       1.467948   -2.778963   -0.372348
C       0.663634   -2.016199   -1.343049
H       0.892155    2.004960    0.211093
H      -0.531855    1.982459   -0.835809
H      -0.715922    1.854197    0.917658
H       0.450240   -0.387972    0.880362
H      -1.030243   -0.387489   -0.058256
H       0.303560   -0.094461   -2.160594
H       2.332210    0.998369   -1.391517
H       2.708720   -0.350315   -0.293750
H       3.491894   -2.431676   -3.136709
H       3.883509   -2.270551   -1.408084
H       1.646771   -3.723823   -2.350496
H       0.990536   -3.638413   -0.115455
H      -0.325722   -2.401891   -1.585162
