19

C      -0.300139    1.286059   -0.824526
C      -0.027255    0.015100   -0.044062
C       1.143267   -0.813690   -0.465497
N       1.196993   -0.045141    0.787820
C      -1.215126   -0.645653    0.559283
C      -2.533720   -0.483404    0.186896
N      -3.302814   -1.292242    0.986176
C      -2.500153   -1.968056    1.869886
C      -1.202203   -1.589125    1.631013
H       0.627032    1.700014   -1.234250
H      -0.975813    1.097613   -1.666135
H      -0.765071    2.045094   -0.186222
H       1.107277   -1.891849   -0.337179
H       1.731386   -0.476009   -1.316221
H       1.745334    0.800739    0.651058
H      -2.986351    0.131880   -0.573427
H      -4.303140   -1.366745    0.937336
H      -2.919701   -2.648585    2.593312
H      -0.325316   -1.914234    2.167492
