18

C       0.022184    1.485389    0.008007
C       0.013867   -0.030857   -0.016636
O       0.702351   -0.488764    1.155223
C       0.794888   -1.816821    1.304848
N       0.302220   -2.713417    0.457142
N       0.645884   -3.869098    1.036438
N       1.313437   -3.782306    2.177884
C       1.430798   -2.470981    2.387085
C       2.121468   -1.883975    3.570970
H       1.046544    1.868347    0.004714
H      -0.495910    1.874784   -0.873283
H      -0.483532    1.862140    0.901480
H      -1.006896   -0.431830   -0.014276
H       0.517304   -0.425670   -0.907372
H       0.407710   -4.754779    0.624997
H       2.961940   -1.250174    3.268168
H       1.442089   -1.256603    4.158034
H       2.501137   -2.680623    4.213702
