18

O      -0.073743    1.487989   -0.093814
C       0.063864    0.074160    0.020292
C      -1.301268   -0.615570    0.040748
C      -2.159224   -0.179478    1.241128
O      -2.595155    1.158404    1.158962
O      -1.870415   -0.271402   -1.224566
C      -3.237326   -0.580971   -1.386518
C      -3.599970   -0.353819   -2.788583
N      -3.912287   -0.179232   -3.886161
H      -0.521761    1.640657   -0.935514
H       0.664492   -0.326855   -0.806806
H       0.595648   -0.117703    0.956443
H      -1.152469   -1.707395    0.102739
H      -3.059082   -0.800499    1.313945
H      -1.571443   -0.377225    2.153388
H      -1.810240    1.685788    0.949314
H      -3.448002   -1.633543   -1.141002
H      -3.867190    0.054031   -0.749743
