17

C      -0.045354    1.557456    0.012950
C      -0.028342    0.016950   -0.014301
C      -1.465600   -0.538313   -0.027724
C       0.801842   -0.523413   -1.159978
C       1.868097   -1.253084   -0.794805
C       1.958014   -1.342513    0.672958
O       2.771080   -1.906919    1.362160
C       0.739662   -0.527118    1.201850
O       0.461611   -0.361179    2.357747
H       0.967805    1.970241    0.018952
H      -0.569357    1.952885   -0.863495
H      -0.561718    1.904251    0.912349
H      -2.011265   -0.174805   -0.904771
H      -1.473382   -1.632075   -0.050994
H      -1.995247   -0.211170    0.871313
H       0.523853   -0.315024   -2.189726
H       2.582844   -1.724596   -1.457179
