20

C      -0.103846    1.447028   -0.018531
C       0.078811   -0.035832    0.074129
C       0.843581   -0.841213   -0.925697
C       1.127172   -2.216809   -0.355010
C      -0.281293   -2.077277    0.258497
C      -1.183778   -3.253135    0.492594
C      -0.152629   -0.916800    1.278394
O       0.863639   -0.929764    2.256165
N      -0.650669   -1.007901   -0.829978
H       0.703800    1.969136    0.505886
H      -0.099844    1.774149   -1.062722
H      -1.055546    1.755204    0.427263
H       1.293066   -0.371210   -1.793867
H       1.142559   -2.977324   -1.140765
H       1.970858   -2.348735    0.327504
H      -0.785018   -3.889510    1.292085
H      -2.187780   -2.926244    0.783536
H      -1.276032   -3.865085   -0.410103
H      -1.135443   -0.694177    1.718482
H       0.535067   -1.387861    3.035869
