18

C      -0.036518    1.445498    0.029618
C      -0.018915   -0.008579   -0.004983
C      -0.001559   -1.214098   -0.028576
C       0.030971   -2.633216   -0.044409
C      -0.375778   -3.460955   -1.245614
C      -1.086667   -3.675586    0.055015
C      -0.217512   -4.393685    1.097137
C       1.150782   -4.732137    0.653764
N       0.852392   -3.338784    1.044138
H       0.693437    1.825748    0.752914
H       0.210628    1.876393   -0.947253
H      -1.020558    1.828308    0.323618
H      -0.942523   -2.878333   -1.964167
H       0.263008   -4.207283   -1.704337
H      -2.146232   -3.503003    0.185023
H      -0.617616   -4.716021    2.052826
H       1.792271   -5.216800    1.384839
H       1.384142   -4.993186   -0.371390
