15

N      -0.028958    1.268299   -0.024633
C      -0.030698    0.008802   -0.005565
O       1.071319   -0.823450   -0.027475
C       0.467886   -2.123339    0.011027
C      -0.790793   -2.144447   -0.898115
C      -1.461459   -3.129625    0.086575
C      -0.731500   -2.115831    0.997270
C      -1.185170   -0.944941    0.044948
H       0.927528    1.626387   -0.059960
H       1.224967   -2.904437   -0.000864
H      -0.816062   -2.142688   -1.987886
H      -2.552521   -3.110078    0.120412
H      -1.086746   -4.157280    0.090368
H      -0.688620   -2.081181    2.085940
H      -2.196327   -0.548286    0.070592
