14

O      -0.099148    1.289999    0.038038
N       0.053796   -0.095209   -0.069775
C      -1.054409   -0.689177    0.044623
C      -1.431018   -2.121681   -0.097036
N      -2.268266   -2.436760    1.104623
C      -2.883253   -1.749086   -0.033997
C      -2.536024   -0.245762    0.120487
C      -3.025146    0.447628    1.302346
N      -3.438919    1.000643    2.228433
H       0.806781    1.608797   -0.043267
H      -0.923184   -2.897984   -0.651697
H      -2.516166   -3.424310    1.039577
H      -3.726962   -2.152816   -0.576450
H      -2.784150    0.331133   -0.776508
