20

C       0.078890    1.419371   -0.001689
N       0.037281   -0.032754    0.078278
C      -1.218237   -0.627889    0.026125
C      -2.496145   -0.095296    0.023170
C      -3.353746   -1.223149    0.030883
C      -4.850168   -1.244393    0.033071
N      -2.667916   -2.360187    0.031922
N      -1.356952   -1.980407    0.043008
C      -0.309411   -2.970656    0.053317
H       1.119241    1.748457    0.051637
H      -0.373264    1.823361   -0.920615
H      -0.455489    1.844273    0.853235
H       0.710973   -0.473614   -0.534133
H      -2.769747    0.946681    0.011955
H      -5.261329   -0.732680   -0.844515
H      -5.205919   -2.277004    0.027306
H      -5.257609   -0.743768    0.918773
H       0.149040   -3.100484   -0.936302
H       0.469141   -2.687643    0.768879
H      -0.755008   -3.917937    0.356308
