19

C       0.009333    1.484660    0.050107
C       0.018336   -0.008897   -0.016198
C       0.073638   -0.764923   -1.118206
C       0.017823   -2.242683   -0.836493
C      -1.314218   -2.894024   -1.248016
O       1.105551   -2.930783   -1.438848
C       0.179409   -2.262731    0.701487
O       0.506313   -3.244675    1.317718
C      -0.038699   -0.851442    1.241126
H       0.850577    1.856515    0.648572
H       0.073463    1.930344   -0.945962
H      -0.903500    1.854905    0.533960
H       0.124997   -0.380786   -2.131257
H      -1.408554   -2.869774   -2.337321
H      -1.333197   -3.938284   -0.918890
H      -2.173557   -2.375239   -0.810978
H       1.269083   -3.706147   -0.884645
H       0.721086   -0.595016    1.989346
H      -1.008971   -0.786376    1.754379
