20

C       0.060233    1.589981    0.056589
C       0.085925    0.058401    0.018726
C       0.712442   -0.532602   -1.244808
C       2.106139   -0.203096   -1.734402
C       1.808614   -1.563662   -1.148179
N       2.300462   -1.805638    0.182901
C       1.254389   -1.928445    1.193624
C       0.620512   -0.544852    1.325838
O       0.516750    0.023358    2.386131
H       1.075452    1.996281    0.027638
H      -0.487218    1.987332   -0.803097
H      -0.415924    1.938437    0.974933
H      -0.959871   -0.292654    0.024078
H      -0.005251   -0.701415   -2.041797
H       2.250674   -0.099845   -2.804415
H       2.731625    0.434291   -1.119873
H       1.749410   -2.419651   -1.820959
H       2.965088   -2.565666    0.219256
H       0.471095   -2.671679    0.949237
H       1.694182   -2.194244    2.157013
