20

C      -0.708566    1.518942    0.037629
C      -0.108252    0.132325   -0.024003
C      -1.092383   -1.075518    0.111016
C      -0.315462   -1.582104    1.364121
C       0.760591   -0.501388    1.129599
C       1.837046   -0.908699    0.062946
C       1.041619   -0.116472   -1.032305
C       3.191271   -0.450027    0.315413
N       4.261526   -0.063525    0.523733
H       0.066809    2.287604    0.126912
H      -1.288568    1.733826   -0.868503
H      -1.384858    1.623006    0.893563
H      -2.128286   -0.788398    0.306770
H      -1.087844   -1.756687   -0.744830
H      -0.868429   -1.419070    2.292425
H       0.027692   -2.620685    1.352428
H       1.136887    0.064504    1.981864
H       1.862533   -1.988404   -0.111954
H       0.800124   -0.674131   -1.940922
H       1.556483    0.805502   -1.312304
