23

C       0.609552    1.473442    0.272689
C      -0.156955    0.211855   -0.131795
C       0.424222   -0.426020   -1.407474
C       0.015201   -1.888085   -1.662213
C       0.151293   -2.269854   -3.132674
O       0.862242   -2.785027   -0.945186
C       0.617191   -2.885568    0.440694
C       0.789144   -1.579589    1.215300
O      -0.282275   -0.685216    0.973154
H       1.651865    1.240598    0.516752
H       0.614557    2.203427   -0.543781
H       0.146030    1.934551    1.148826
H      -1.197882    0.491050   -0.338721
H       0.111071    0.197227   -2.253593
H       1.520633   -0.395985   -1.392255
H      -1.028023   -2.039509   -1.340035
H       1.178346   -2.107206   -3.475440
H      -0.090768   -3.326489   -3.272246
H      -0.520555   -1.670256   -3.753983
H      -0.402741   -3.259100    0.630331
H       1.329907   -3.629596    0.815298
H       0.767458   -1.803702    2.288985
H       1.766363   -1.130226    0.990388
