21

C       0.260443    1.574369   -0.026312
C      -0.036619    0.083853    0.049579
C      -1.538498   -0.269390    0.051020
C      -1.625682   -1.422406    1.025508
C      -0.474192   -1.649148    1.663407
C       0.621674   -0.709817    1.236782
C       1.669615   -1.314746    0.257128
C       0.844922   -0.773653   -0.945192
O       0.181892   -1.742809   -1.726938
H       1.338281    1.772752   -0.003886
H      -0.134124    2.005449   -0.954014
H      -0.193079    2.113442    0.813110
H      -2.159906    0.576107    0.377889
H      -1.884055   -0.543136   -0.952667
H      -2.544156   -1.977277    1.189388
H      -0.320693   -2.420672    2.411900
H       1.036019   -0.134921    2.072370
H       2.658958   -0.856551    0.341118
H       1.790539   -2.402027    0.278437
H       1.408786   -0.166118   -1.658920
H      -0.254301   -2.357668   -1.125902
