21

C      -0.075960    1.473628   -0.232819
C      -0.031968   -0.020805    0.097224
C      -1.419448   -0.632934    0.184960
O      -2.108582   -0.572817   -1.109276
C      -2.082366   -1.997199   -1.203553
C      -1.473036   -2.156972    0.176896
C      -2.878517   -2.648527   -0.101562
C      -4.137270   -2.052927    0.478473
O      -2.859000   -4.054417   -0.167895
H       0.932286    1.886690   -0.328781
H      -0.605287    1.638542   -1.175343
H      -0.596027    2.037869    0.549220
H       0.542969   -0.561184   -0.664132
H       0.474823   -0.187431    1.057385
H      -2.011683   -0.126467    0.959318
H      -1.865934   -2.455290   -2.162936
H      -0.703477   -2.828367    0.534396
H      -4.132872   -0.964359    0.395713
H      -5.012986   -2.419012   -0.071948
H      -4.257810   -2.335158    1.529130
H      -3.552871   -4.327548   -0.778803
