20

O      -0.191746    1.339742    0.622922
C      -0.034588    0.033387    0.092332
C      -1.362175   -0.621922   -0.173447
N      -2.204892   -1.096261    0.954348
C      -1.685571   -2.059213   -0.047114
C      -2.723249   -2.437558   -1.092595
C      -3.351729   -1.085221   -1.502763
C      -2.260138   -0.016331   -1.245567
O      -2.765035    1.259938   -0.855382
H      -0.897478    1.762517    0.113545
H       0.555900    0.049687   -0.839866
H       0.539703   -0.542575    0.828546
H      -1.629106   -1.136048    1.792854
H      -0.941273   -2.783358    0.270710
H      -2.217036   -2.913715   -1.940545
H      -3.466625   -3.145690   -0.713679
H      -3.705454   -1.075464   -2.535952
H      -4.207366   -0.860855   -0.860748
H      -1.673888    0.175791   -2.151500
H      -3.222973    1.110724   -0.016956
