19

C       0.025408   -1.214576   -0.249091
C      -0.033430   -0.040786    0.002960
C      -0.065728    1.388654    0.294598
C       1.302336    2.046820    0.091838
C       1.948139    2.251210   -1.301645
C       0.896520    3.028800   -2.120177
C       0.547861    4.096124   -1.033604
C       1.508716    3.583389    0.060348
O       2.727059    3.340403   -0.709141
H       0.064192   -2.253017   -0.466782
H      -0.829305    1.867373   -0.328584
H      -0.384459    1.543104    1.334097
H       2.043399    1.601404    0.758126
H       2.548243    1.488176   -1.795672
H       1.344419    3.468375   -3.013126
H       0.046643    2.413407   -2.427418
H       0.815089    5.109642   -1.338316
H      -0.502851    4.094561   -0.730188
H       1.658816    4.183843    0.957908
