13

N       0.014749    1.522942   -0.023132
C       0.001842    0.067880    0.042516
C       0.590097   -0.597814   -1.147805
N       1.040654   -1.057031   -2.107986
C       0.708947   -0.424275    1.279781
N       1.579984    0.302010    1.923827
O       1.988972   -0.535620    2.963869
C       1.306764   -1.672183    2.814709
N       0.500190   -1.680505    1.802213
H       0.969372    1.866459    0.023025
H      -0.380318    1.831458   -0.905377
H      -1.037413   -0.274345    0.114485
H       1.485924   -2.453992    3.537860
