17

O       0.048066    1.478285    0.424986
C       0.083502    0.133759    0.118246
C      -0.967101   -0.976981    0.053520
C      -0.633203   -1.267782   -1.435870
C       0.671952   -0.540493   -1.136842
C       1.873194   -1.121109   -1.057945
C       2.448539   -1.102883    0.336101
O       1.411180   -1.683970    1.177443
C       0.222993   -0.939580    1.101146
H      -0.339330    1.950752   -0.321062
H      -1.972075   -0.993574    0.464123
H      -0.548422   -2.307824   -1.763645
H      -1.340939   -0.732959   -2.079356
H       2.172005   -1.908037   -1.745794
H       3.320357   -1.747661    0.451166
H       2.690713   -0.096864    0.697983
H      -0.178571   -0.750905    2.094974
