23

C       0.009030    1.515937   -0.298693
C      -0.018786    0.051934    0.161694
C      -1.412776   -0.539663    0.179317
C      -2.000073   -1.087735   -1.102444
C      -1.697550   -2.038800    0.045538
C      -0.651255   -3.120076   -0.096645
C      -2.876587   -2.280462    0.935141
C      -3.288855   -1.168220    1.544600
C      -2.417120    0.018247    1.198597
H       1.031313    1.906922   -0.310268
H      -0.403021    1.616095   -1.308407
H      -0.582935    2.154367    0.365451
H       0.625782   -0.541626   -0.496947
H       0.420242   -0.021355    1.166113
H      -3.038831   -0.888422   -1.347803
H      -1.332754   -1.122599   -1.959923
H       0.178012   -2.801488   -0.734630
H      -0.235573   -3.407960    0.875780
H      -1.082432   -4.020271   -0.550911
H      -3.335623   -3.259372    1.029408
H      -4.152316   -1.089288    2.195537
H      -1.901352    0.409412    2.088213
H      -3.001965    0.855001    0.794601
