16

C       0.108316    1.564280   -0.073417
C      -0.044730    0.053756    0.079914
O       0.506560   -0.624949   -1.068348
C       1.475029   -1.639813   -0.720299
C       1.602871   -1.512112    0.763221
C       0.741433   -0.565649    1.189057
O       0.784971   -0.395904    2.506172
N       1.749398   -1.296054    3.009618
C       2.218116   -1.944686    1.963409
H       1.164555    1.838267   -0.138932
H      -0.397774    1.895360   -0.983703
H      -0.338936    2.079484    0.782409
H      -1.113433   -0.198592    0.161009
H       1.102165   -2.622424   -1.041302
H       2.405179   -1.439531   -1.267268
H       2.979595   -2.693616    2.130378
