19

C       0.015893    1.549463    0.083714
C      -0.005983    0.053271   -0.005824
C       1.088738   -0.844194   -0.505338
C       0.582519   -1.786700   -1.590563
C      -0.845621   -2.069588   -1.127306
O      -0.786085   -2.962489    0.023167
C      -0.761249   -1.808410    0.885905
C       0.572015   -1.031990    0.918215
C      -1.250191   -0.852746   -0.215683
H       1.006036    1.908697    0.383214
H      -0.224596    2.010560   -0.882165
H      -0.708240    1.922722    0.816992
H       2.091385   -0.434032   -0.576278
H       0.599869   -1.286540   -2.567266
H       1.146086   -2.721021   -1.667966
H      -1.533506   -2.440585   -1.890088
H      -1.260073   -1.967195    1.843752
H       1.235983   -0.927752    1.768804
H      -2.257328   -0.445550   -0.259653
