20

C       0.062024    1.529476    0.154402
C       0.046740    0.011345   -0.078925
C      -1.350192   -0.545347   -0.075500
C      -2.097609   -1.034720    1.177983
C      -3.434656   -0.519861    1.663223
C      -1.899739   -1.965682    0.014890
N      -2.812808   -1.680561   -1.096709
C      -2.397886   -0.337495   -1.166367
O      -2.766211    0.578800   -1.848244
H       1.081604    1.922891    0.102413
H      -0.543492    2.038341   -0.600664
H      -0.347986    1.780103    1.138270
H       0.523857   -0.215396   -1.040547
H       0.643312   -0.494362    0.690319
H      -1.388073   -1.228052    1.983504
H      -4.135345   -0.355979    0.840368
H      -3.892116   -1.230676    2.360115
H      -3.315803    0.433424    2.187734
H      -1.348596   -2.897317    0.041919
H      -3.787824   -1.958420   -1.119189
