17

C       0.076924    1.702531   -0.027473
C       0.181605    0.186221   -0.011813
O       1.028526   -0.242649   -1.113901
C       2.090651   -0.875573   -0.557107
N       3.004378   -1.325690   -1.464538
N       2.133120   -1.037663    0.709525
C       0.885729   -0.482017    1.224995
C       1.144927    0.427504    2.420745
O       0.303857    1.107337    2.951628
H       1.056961    2.166769    0.120956
H      -0.321175    2.035630   -0.989692
H      -0.585071    2.041630    0.771665
H      -0.801746   -0.258412   -0.183822
H       3.047370   -0.818918   -2.334444
H       3.892784   -1.589349   -1.069288
H       0.243918   -1.286537    1.617839
H       2.193734    0.388986    2.787496
