25

C      -0.317815    1.531781    0.105293
C      -0.044778    0.036490    0.021495
C       1.131123   -0.359990   -0.925228
C       1.871556   -1.053088    0.248931
C       0.716482   -0.676136    1.228691
C       1.144797    0.162560    2.424768
C      -0.170941   -1.872647    1.621176
C      -1.006594   -2.188078    0.368767
C      -1.321664   -0.795429   -0.203596
H       0.598511    2.105837    0.279360
H      -0.755903    1.894856   -0.832472
H      -1.021141    1.771095    0.911123
H       0.849447   -1.020366   -1.750916
H       1.662281    0.497060   -1.348645
H       2.033040   -2.128260    0.125942
H       2.832017   -0.597885    0.506323
H       1.762839    1.015866    2.125790
H       0.281794    0.551354    2.977369
H       1.738327   -0.440148    3.123059
H       0.416075   -2.726873    1.976643
H      -0.838618   -1.577327    2.441554
H      -0.414715   -2.770148   -0.348092
H      -1.903999   -2.773291    0.589213
H      -2.151846   -0.347973    0.359083
H      -1.623008   -0.818049   -1.256843
