17

C       0.020719    1.517181    0.048333
C       0.021244    0.019470    0.018666
C      -0.022802   -0.804074   -1.085793
N      -0.004025   -2.103639   -0.656261
C       0.052326   -2.156414    0.724443
C       0.085396   -3.429342    1.498602
C       0.068354   -0.847879    1.151480
O       0.121846   -0.481911    2.471851
H       0.922713    1.925294    0.524558
H      -0.019222    1.927915   -0.964410
H      -0.842260    1.923446    0.593456
H      -0.065805   -0.558941   -2.135259
H      -0.027516   -2.909960   -1.254219
H       0.962123   -4.045352    1.258587
H       0.126822   -3.198413    2.565455
H      -0.804927   -4.048937    1.327935
H       0.122059    0.477853    2.518645
