17

O       0.255297    1.391880    0.149001
C       0.157963   -0.011067    0.054123
C      -1.307313   -0.456595    0.108673
O      -2.055127    0.230178   -0.890910
C      -1.475948   -1.962578   -0.019881
C      -2.903924   -2.522826   -0.150685
C      -2.447356   -2.935927   -1.547354
O      -2.882500   -3.495379   -2.497973
O      -1.181582   -2.400787   -1.399109
H      -0.429741    1.742966   -0.434216
H       0.614546   -0.394298   -0.874676
H       0.716039   -0.435938    0.896027
H      -1.735466   -0.136919    1.066416
H      -1.773419   -0.126946   -1.743960
H      -0.830221   -2.499266    0.680368
H      -3.170612   -3.351867    0.505579
H      -3.695545   -1.772367   -0.158678
