22

C       0.183886    1.406145    0.199260
C       0.041161   -0.097061   -0.084547
C      -1.430700   -0.523453    0.026661
C       0.637206   -0.473326   -1.453722
O      -0.107349    0.236501   -2.424613
C       2.194459   -0.349847   -1.524148
C       2.302166   -1.880285   -1.298940
C       0.803100   -2.012708   -1.672871
H       1.227918    1.732530    0.174769
H      -0.366311    1.988301   -0.544776
H      -0.216028    1.649346    1.188855
H       0.618393   -0.647644    0.671032
H      -2.035034   -0.005843   -0.723056
H      -1.560173   -1.599481   -0.123435
H      -1.827720   -0.276989    1.016613
H       0.245927    0.018541   -3.292390
H       2.511389   -0.062764   -2.532690
H       2.689435    0.311847   -0.809599
H       3.018838   -2.424666   -1.916982
H       2.492241   -2.132888   -0.252822
H       0.181442   -2.685542   -1.077677
H       0.667338   -2.266650   -2.729801
