18

O       0.163712    1.376834   -0.003511
C       0.017115   -0.022510    0.166517
C      -1.403712   -0.494205    0.166380
C      -2.510697    0.253844    0.147391
C      -3.728404   -0.603778    0.030334
N      -3.745633   -1.400857   -1.239351
C      -3.258462   -2.005372    0.023224
C      -1.726600   -1.989629    0.068721
O      -1.141907   -2.593332   -1.075206
H      -0.206085    1.599017   -0.864590
H       0.574811   -0.592785   -0.593158
H       0.488240   -0.256551    1.130956
H      -2.536483    1.336218    0.173459
H      -4.678062   -0.306856    0.461240
H      -4.692491   -1.734153   -1.413113
H      -3.814203   -2.823148    0.466790
H      -1.340948   -2.546942    0.930855
H      -1.668676   -2.264352   -1.818418
