15

O      -0.240894    0.073502    0.480131
C       0.239191    0.823519   -0.328050
C       1.001205    2.089369    0.035134
N       1.068638    2.977033   -1.112667
C       1.080911    4.213413   -0.924416
C       1.116273    5.437714   -1.813187
C       1.069928    6.201368   -0.473484
O       1.056299    4.934084    0.255850
H       0.176633    0.639174   -1.423626
H       0.556231    2.535182    0.933293
H       2.017845    1.768019    0.312546
H       2.031438    5.552253   -2.396210
H       0.250873    5.555472   -2.466998
H       1.954663    6.787455   -0.215582
H       0.162007    6.774906   -0.274131
