16

O      -0.315652    1.368219   -0.215172
N      -0.148513   -0.017342   -0.364023
C      -1.165187   -0.643547    0.048688
C      -2.518996   -0.296446    0.640115
N      -2.861543   -1.766157    0.586893
C      -3.695799   -2.150673   -0.482363
N      -3.195691   -2.797935   -1.456780
C      -1.746512   -2.918799   -1.216955
C      -1.481231   -2.123656    0.087508
H       0.509857    1.715199   -0.570737
H      -2.489180    0.095555    1.660934
H      -3.156698    0.347190    0.025458
H      -4.750479   -1.892918   -0.426092
H      -1.479399   -3.973732   -1.095191
H      -1.190237   -2.536061   -2.078262
H      -0.894699   -2.684781    0.819475
