19

C      -0.111711    1.515992    0.019921
C       0.026682    0.009513    0.033209
C       1.388569   -0.646344   -0.125393
O       2.548641    0.134616   -0.174157
C       0.687361   -0.688897    1.194359
C       1.262079   -0.098787    2.508273
C       0.795441   -1.391112    3.203464
O      -0.618686   -1.505026    3.006226
C       0.253171   -1.932053    1.946580
H       0.793159    1.995811    0.401247
H      -0.285969    1.887406   -0.996542
H      -0.954545    1.838254    0.639744
H      -0.798769   -0.529466   -0.427547
H       1.440566   -1.571459   -0.701856
H       2.608834    0.529016   -1.050824
H       2.347705    0.014113    2.466408
H       0.804988    0.818427    2.887412
H       1.220526   -1.894201    4.063831
H       0.144266   -2.950374    1.590423
