17

O      -0.162637    1.324156   -0.088944
C       0.026366   -0.050805   -0.065069
C       1.093303   -0.735232   -0.899817
C       0.760807   -2.171609   -0.539458
O       1.421383   -3.249854   -1.112030
C      -0.723293   -2.335044   -0.292586
C      -1.217560   -0.907796    0.026915
C      -0.259767   -0.841609    1.210750
C       0.233923   -2.267945    0.891664
H       0.561145    1.735579    0.396206
H       0.972242   -0.537831   -1.969679
H       2.109890   -0.450852   -0.597344
H       2.304639   -3.298682   -0.729958
H      -1.294678   -3.171834   -0.669470
H      -2.217104   -0.508251   -0.073162
H      -0.399499   -0.381127    2.179746
H       0.523528   -3.048023    1.583132
