19

C       0.064275    1.512456    0.057436
C      -0.013266    0.014988   -0.089666
C       0.794085   -0.652751   -1.203299
C       0.358351   -2.143438   -1.128140
C      -0.942579   -2.103364   -0.325011
C      -0.860910   -1.459276    1.066321
O       0.329125   -0.680504    1.170469
C      -1.404192   -0.693645   -0.097745
O      -2.626665   -0.185903   -0.474947
H       1.092916    1.822886    0.265725
H      -0.264946    2.006406   -0.862298
H      -0.563636    1.857405    0.884829
H       0.521645   -0.208154   -2.168086
H       1.869872   -0.516420   -1.058768
H       0.198954   -2.572261   -2.121295
H       1.115612   -2.751719   -0.625318
H      -1.698148   -2.873740   -0.436132
H      -1.284304   -1.881883    1.970036
H      -2.882411    0.494629    0.158146
