15

N      -0.016205    1.404814    0.149249
C       0.002010    0.025637    0.058404
C      -1.196461   -0.709001    0.045740
C      -1.177219   -2.091404    0.009349
C       0.039829   -2.789384   -0.016794
C       1.237683   -2.058588   -0.004577
C       1.219773   -0.676167    0.031807
C       0.058957   -4.214514   -0.058006
N       0.074500   -5.372820   -0.092268
H       0.817073    1.887795   -0.148708
H      -0.865691    1.864927   -0.138974
H      -2.145601   -0.182639    0.067781
H      -2.108792   -2.645376   -0.001933
H       2.183773   -2.587044   -0.026688
H       2.154451   -0.124206    0.042987
