19

C      -0.069434    1.795523    0.178173
C      -0.054158    0.289199   -0.013453
C       1.201375   -0.417006   -0.395963
C       0.633857   -0.635883    1.003458
C       1.357244   -0.103582    2.177615
O       1.333134   -0.604203    3.275848
C      -1.353398   -0.243635   -0.554856
C      -1.565688   -0.483565   -1.989373
O      -1.354805   -1.568166   -1.078847
H       0.890293    2.176144    0.533247
H      -0.290769    2.292060   -0.773090
H      -0.837108    2.098536    0.898787
H       1.135534   -1.265200   -1.066815
H       2.108919    0.173251   -0.476066
H       0.139235   -1.584156    1.184244
H       1.963432    0.811531    1.983778
H      -2.228366   -0.006603    0.053789
H      -2.567577   -0.418047   -2.409731
H      -0.749608   -0.299579   -2.686066
