21

C      -0.056143    1.511000   -0.048119
C       0.089971    0.006769   -0.076317
C       1.457815   -0.634631   -0.224678
C       0.738340   -0.724203    1.088688
O       1.301179    0.055908    2.106749
C       0.186420   -2.033403    1.610637
C      -0.664598   -2.885470    0.698459
C       0.871530   -2.656406    2.754003
O      -0.335356   -1.899255    2.953123
H       0.734262    1.963327    0.555052
H      -0.004589    1.930395   -1.058711
H      -1.017908    1.806099    0.386231
H      -0.719449   -0.517196   -0.576379
H       1.562766   -1.523176   -0.837579
H       2.318751    0.025847   -0.234999
H       0.666896    0.019023    2.836813
H      -0.126055   -3.153356   -0.215982
H      -0.951455   -3.807283    1.209226
H      -1.579989   -2.358619    0.414123
H       0.771625   -3.728296    2.917218
H       1.771889   -2.196602    3.152557
