21

C      -0.079271    1.575725   -0.081358
C       0.074684    0.057874   -0.004757
C       0.966301   -0.583485   -1.099567
C       2.408295   -0.337267   -0.558276
C       1.939017   -1.320351    0.555037
C       1.131226   -2.037426   -0.568469
C       0.843003   -0.500223    1.218985
C       0.928976    0.094335    2.552848
O       0.116238   -1.064089    2.308572
H       0.886955    2.089282   -0.054187
H      -0.585391    1.865661   -1.008563
H      -0.680772    1.954828    0.751166
H      -0.921546   -0.399647   -0.018686
H       0.696083   -0.375576   -2.135497
H       3.176051   -0.774604   -1.200481
H       2.698498    0.676102   -0.267810
H       2.630432   -1.845214    1.213855
H       0.232550   -2.589498   -0.279645
H       1.766918   -2.651533   -1.210273
H       1.813797   -0.077453    3.166252
H       0.381089    1.005923    2.787528
