15

C      -0.182381    1.583822    0.009922
C       0.077787    0.077405   -0.002352
C       0.884319   -0.428326   -1.192243
O       0.774314   -0.090952   -2.339907
C       1.913989   -1.448220   -0.675496
N       1.798573   -1.320248    0.761262
C       0.847752   -0.442753    1.216574
O       0.656863   -0.146522    2.374280
H       0.757476    2.143539    0.009554
H      -0.753343    1.875838   -0.874018
H      -0.738062    1.853761    0.910264
H      -0.884176   -0.456476   -0.019652
H       1.660430   -2.452298   -1.042509
H       2.910541   -1.194602   -1.056336
H       2.418488   -1.773094    1.414447
