19

C       0.093631    1.432269   -0.003681
C       0.023492   -0.082732   -0.080307
O      -1.337814   -0.474504   -0.042035
C      -1.520150   -1.870632   -0.114924
C      -3.015256   -2.130850   -0.023616
C      -3.383541   -3.595566   -0.233881
O      -2.588256   -4.449574   -0.525358
C      -3.623093   -1.654955    1.296321
O      -4.803785   -1.685223    1.524970
H       1.135045    1.765745   -0.032504
H      -0.439384    1.884527   -0.844673
H      -0.360537    1.792220    0.923827
H       0.492541   -0.448419   -1.008532
H       0.570889   -0.541724    0.759666
H      -1.116057   -2.284843   -1.049428
H      -0.996439   -2.380721    0.711341
H      -3.543184   -1.568429   -0.807783
H      -4.461371   -3.812268   -0.088278
H      -2.887263   -1.299221    2.047722
