19

O      -0.138753    0.040576   -0.388645
C      -0.005373    1.239151   -0.255960
C       1.272763    1.937213   -0.096895
C       1.343889    3.262211    0.116420
C       2.757656    3.733113    0.319007
C       3.609846    2.498823   -0.084556
C       2.629440    1.312393   -0.093661
C       2.909041    0.039531    0.685122
C       2.962863    0.030161   -0.818550
H      -0.892164    1.912040   -0.240732
H       0.481847    3.918825    0.180238
H       2.993741    4.624864   -0.272151
H       2.909056    4.018730    1.369745
H       4.017931    2.648315   -1.090175
H       4.457272    2.337397    0.586723
H       3.841338   -0.004646    1.239148
H       2.071731   -0.462323    1.154901
H       2.164549   -0.481924   -1.339965
H       3.936129   -0.018245   -1.297468
