12

O       0.044481    1.337554    0.007823
C      -0.038439    0.004969    0.000908
C      -1.184305   -0.699297    0.003128
F      -2.350075   -0.063509    0.012873
C      -1.162383   -2.153925   -0.005033
N      -2.232490   -2.845783   -0.003115
N       0.138529   -2.728808   -0.015132
C       1.158616   -1.984616   -0.016489
O       1.177804   -0.617402   -0.009022
H       0.976538    1.588371    0.004330
H      -1.984425   -3.836575   -0.009893
H       2.172946   -2.369839   -0.023964
