19

O      -0.285372    1.375308   -0.182078
C      -0.001468   -0.000884   -0.080062
C       0.361310   -0.489809    1.386174
C      -0.166083   -1.941532    1.481651
C      -1.648105   -2.442727    1.437837
C      -2.880908   -1.539684    1.340506
C      -2.405380   -0.488676    0.351677
C      -1.239112   -0.851074   -0.201581
C      -0.853394   -2.263999    0.185280
H       0.529011    1.861470   -0.022812
H       0.797709   -0.293325   -0.778332
H       1.442524   -0.476161    1.571535
H      -0.111795    0.208520    2.084085
H       0.499516   -2.669355    1.936866
H      -1.770504   -3.436038    1.861774
H      -3.760944   -2.124335    1.034281
H      -3.150387   -1.049311    2.285435
H      -2.760742    0.534857    0.381768
H      -0.568123   -3.026603   -0.530701
