21

C      -0.360348    1.462931    0.034129
C       0.055577    0.014365    0.005205
C       1.147513   -0.458912   -0.990637
C       1.826660   -1.280392    0.149255
C       0.741256   -0.806118    1.154049
C       1.178476   -0.252279    2.483635
O       1.667629   -1.343617    3.255643
C      -0.540154   -1.654981    1.108504
O      -1.080081   -0.885932    0.007976
H       0.510419    2.123241    0.099528
H      -0.902558    1.709151   -0.886248
H      -1.023950    1.667806    0.879448
H       0.742772   -1.032017   -1.827318
H       1.772279    0.348553   -1.382979
H       1.883368   -2.361153    0.000194
H       2.825926   -0.920832    0.406914
H       1.959520    0.511765    2.335638
H       0.328100    0.238849    2.984619
H       1.943343   -1.007404    4.113596
H      -0.416105   -2.715250    0.857355
H      -1.172672   -1.573327    2.002367
