16

O      -0.045633    1.406374   -0.150246
C      -0.009679    0.008358   -0.004280
C       0.329982   -0.364279    1.468031
N      -1.093276   -0.697569    1.733630
C      -1.414812   -0.645106    0.293187
C      -2.616738    0.210031   -0.032229
O      -2.699464    0.891538   -1.025856
C       0.774160   -0.641643   -1.047614
C       1.408704   -1.176895   -1.917257
H      -0.632120    1.601515   -0.894901
H       1.021797   -1.209278    1.538814
H       0.706185    0.479269    2.053019
H      -1.238003   -1.600126    2.169528
H      -1.526447   -1.616222   -0.209212
H      -3.424105    0.184422    0.731921
H       1.976103   -1.639348   -2.687025
