14

O      -0.231698   -0.019611    0.322718
C      -0.075209    1.086694   -0.112039
C       1.242405    1.858130   -0.008765
C       1.275674    2.779091    1.254403
C       2.376467    1.803908    1.722074
O       2.334744    1.076588    0.472148
C       1.548869    2.546357   -1.325438
O       0.800085    3.334819   -1.843014
H      -0.883999    1.668286   -0.603885
H       1.597534    3.801063    1.052154
H       0.359512    2.796743    1.845902
H       3.363054    2.242658    1.902526
H       2.099220    1.164574    2.566203
H       2.525928    2.251346   -1.765449
