17

C       0.014097    1.571537    0.025030
C       0.061613    0.060847    0.084471
C       1.306932   -0.737847   -0.176086
O       2.471242   -0.037799    0.276175
C       1.988424   -0.103929    1.643918
C       0.681443   -0.765337    1.205650
C      -0.044830   -1.830466    1.973530
H       1.000995    1.998959    0.217591
H      -0.299292    1.906571   -0.969407
H      -0.692451    1.982809    0.754043
H      -0.825561   -0.437951   -0.304637
H       1.441395   -1.488467   -0.947942
H       2.624435   -0.770144    2.239814
H       1.939808    0.881797    2.122002
H      -0.596771   -1.407303    2.821910
H      -0.771318   -2.347677    1.338580
H       0.647554   -2.582473    2.369352
