17

C      -0.076930    1.463381   -0.062673
C      -0.035546   -0.063508   -0.082598
O       0.778030   -0.604717    0.949167
C      -1.417798   -0.658270    0.001245
C      -2.203825   -1.072412    1.188879
C      -1.908703   -2.083560    0.062886
C      -2.736366   -1.693805   -1.129509
O      -3.446222   -2.205992   -1.930219
O      -2.344293   -0.353955   -1.087167
H       0.934856    1.866479   -0.156484
H      -0.687689    1.842495   -0.886289
H      -0.515554    1.826908    0.874798
H       0.416762   -0.399077   -1.023447
H       0.628675   -0.084084    1.745875
H      -1.638334   -1.274536    2.093041
H      -3.210894   -0.695818    1.335120
H      -1.393454   -3.017463    0.229559
