20

C      -0.606082    1.066387   -0.036734
C      -0.004484   -0.321111    0.102865
C       1.318740   -0.630485   -0.684641
C       1.845234   -1.410933    0.564485
C       0.748962   -0.723730    1.385224
C       0.990013    0.158058    2.578045
C       0.193071   -1.121200    2.714797
C       1.212088   -1.339088   -1.946940
N       1.108672   -1.917433   -2.943382
H       0.133363    1.844461    0.179739
H      -0.982376    1.227363   -1.052295
H      -1.447580    1.201484    0.651745
H      -0.751888   -1.083597   -0.143252
H       1.891533    0.289338   -0.835004
H       1.688944   -2.488172    0.462047
H       2.885023   -1.224805    0.841824
H       1.990830    0.185897    2.997413
H       0.454309    1.099444    2.643976
H      -0.878804   -1.037408    2.866419
H       0.650282   -1.959477    3.231005
