17

C       0.003866    1.378309   -0.167553
C      -0.008762   -0.130130    0.114335
N      -1.363750   -0.667998    0.103943
C      -1.896840   -1.022336   -0.989850
O      -1.207429   -0.900658   -2.200250
N      -1.717070   -1.334644   -3.422446
C      -2.903434   -1.830457   -3.413215
C      -3.737331   -1.969897   -2.242968
C      -3.237212   -1.570468   -1.062848
H       1.019182    1.775124   -0.068765
H      -0.348316    1.586071   -1.181728
H      -0.643881    1.906712    0.538102
H       0.637243   -0.641904   -0.610759
H       0.402378   -0.313023    1.112665
H      -3.251282   -2.149279   -4.391173
H      -4.730755   -2.391040   -2.341435
H      -3.775550   -1.637713   -0.125752
