17

C      -0.013161    1.513277   -0.025267
C      -0.013122    0.007551    0.021746
C      -0.015276   -0.722811   -1.157829
F      -0.008466   -0.061135   -2.338453
C      -0.013669   -2.119149   -1.211558
N      -0.078167   -2.766766   -2.444520
C      -0.002916   -2.804768    0.008482
C       0.000653   -2.102941    1.208871
C      -0.006820   -0.711043    1.221224
H       0.864596    1.897407   -0.556169
H      -0.892698    1.896954   -0.553366
H      -0.011372    1.931699    0.983810
H       0.227396   -2.196750   -3.219821
H       0.343147   -3.683887   -2.459124
H      -0.002662   -3.890398    0.003715
H       0.008822   -2.650821    2.145139
H      -0.005615   -0.170455    2.161638
