19

C       0.031375    1.407786   -0.073649
N      -0.006762   -0.033587    0.004108
N      -0.106450   -0.790541   -1.124222
C      -0.048382   -2.049209   -0.701430
C      -0.143388   -3.180072   -1.675470
C       0.102109   -2.133737    0.709322
C       0.201464   -3.350931    1.575097
C       0.125977   -0.809207    1.102912
O       0.256818   -0.210667    2.311551
H       1.045726    1.775001   -0.267873
H      -0.621418    1.725143   -0.888069
H      -0.322559    1.828426    0.869160
H       0.735356   -3.833804   -1.621828
H      -1.021780   -3.807915   -1.483864
H      -0.217886   -2.786469   -2.691431
H       0.523837   -3.099837    2.593712
H      -0.752020   -3.886668    1.665645
H       0.935010   -4.066037    1.185739
H       0.238499   -0.892270    2.991089
