16

C      -0.039231    1.545658    0.031351
C      -0.054231    1.554631   -1.539457
C      -0.033010   -0.016108   -1.548536
C      -0.017935   -0.024972    0.022253
C       1.552716   -0.003786    0.007477
C       1.531515    1.566955    0.016547
C       1.516420    1.575830   -1.554241
C       1.537737    0.005199   -1.563331
H      -0.670468    2.162153    0.669568
H      -0.697198    2.178370   -2.158640
H      -0.659161   -0.649817   -2.174810
H      -0.632226   -0.665573    0.653244
H       2.195669   -0.627531    0.626667
H       2.157684    2.200650    0.642817
H       2.130691    2.216441   -2.185242
H       2.168991   -0.611284   -2.201542
