21

C      -0.044588    1.528612    0.025687
C       0.030008    0.029704   -0.012999
C       0.860325   -0.796218   -0.997676
C      -0.129008   -1.995325   -0.795333
C      -0.602515   -2.742452   -2.023937
C       0.391293   -2.864286    0.355379
O       0.533219   -1.967439    1.461827
C      -0.287009   -0.851145    1.181994
C      -1.096327   -1.020115   -0.055730
H       0.914772    1.962682    0.332293
H      -0.297342    1.942389   -0.957781
H      -0.805063    1.872150    0.735258
H       0.790249   -0.392358   -2.012617
H       1.914235   -0.971573   -0.751441
H       0.221069   -3.294521   -2.491312
H      -1.388110   -3.464621   -1.772973
H      -1.007533   -2.054191   -2.772495
H      -0.321027   -3.667929    0.602643
H       1.369080   -3.312501    0.146084
H      -0.692163   -0.382515    2.071696
H      -2.171220   -0.935123   -0.159909
