19

C       0.147095    0.396799   -0.670553
C       0.601923    1.398518    0.331498
N       0.958443   -0.009596    0.472972
C       0.341420   -0.748275    1.555684
C      -1.158300   -1.009533    1.715022
C      -1.502503   -2.269670    0.984444
C      -0.252541   -2.816458    0.316601
C       0.457401   -2.284687    1.574044
N      -0.897361   -2.347607    2.357253
H      -0.909038    0.137383   -0.667560
H       0.632656    0.327377   -1.640044
H       1.423120    2.074179    0.108581
H      -0.153315    1.807170    1.001201
H       0.733529   -0.354205    2.498925
H      -1.923913   -0.352293    2.112201
H      -2.533657   -2.558331    0.813074
H      -0.268586   -3.909320    0.313110
H       0.059059   -2.444443   -0.663065
H       1.340321   -2.772306    1.980974
