20

C      -0.181916    1.505472   -0.048645
C      -0.037807   -0.012336   -0.023909
C       1.165370   -0.555462   -0.846991
C       1.275319   -2.057032   -0.524789
N       2.404725   -1.924587    0.464151
C       2.096394   -0.424413    0.404228
C       0.755937   -0.562560    1.194778
C       0.983162   -2.071604    0.939289
C       0.514116   -3.243612    1.738826
H       0.775677    2.003044    0.142929
H      -0.545793    1.851547   -1.022084
H      -0.890571    1.847119    0.713435
H      -1.001735   -0.497502   -0.219133
H       1.409779   -0.199172   -1.846545
H       1.189179   -2.914978   -1.181485
H       2.887238    0.304112    0.565563
H       0.593071   -0.216016    2.214800
H      -0.578957   -3.323804    1.715153
H       0.932825   -4.171464    1.336681
H       0.826126   -3.160783    2.785571
