18

C      -0.018391    1.459067    0.043458
C       1.435006    1.975871   -0.008063
N       2.248946    1.509154    1.117772
C       1.986225    0.153718    1.434774
C       2.710234   -0.708331    2.230941
N       2.082032   -1.929872    2.185237
C       0.971355   -1.870177    1.377943
C       0.885184   -0.581225    0.895886
N      -0.105575   -0.003736    0.064254
H      -0.499444    1.848593    0.951416
H      -0.589718    1.831775   -0.812519
H       1.900364    1.628019   -0.940786
H       1.453799    3.070138   -0.023848
H       2.134783    2.114957    1.922044
H       3.603535   -0.553074    2.813038
H       2.391094   -2.750400    2.672821
H       0.343661   -2.730609    1.214895
H      -0.077531   -0.380973   -0.875846
