23

C       0.104651    1.553548   -0.029208
C      -0.004946    0.027852   -0.034146
O       0.743906   -0.521724    1.051234
C      -1.458401   -0.500303   -0.028732
C      -2.287032    0.075211   -1.186637
C      -1.455383   -2.041567   -0.038592
C      -2.807402   -2.683002    0.319781
C      -2.687644   -4.184175    0.451485
O      -3.347708   -4.988581   -0.154099
H       1.154623    1.841912    0.068780
H      -0.288417    1.999781   -0.946063
H      -0.448694    1.982866    0.816488
H       0.497349   -0.361271   -0.930076
H       0.416312   -0.117653    1.862752
H      -1.912385   -0.168633    0.919824
H      -3.290652   -0.358093   -1.209920
H      -2.404780    1.158928   -1.108448
H      -1.812045   -0.143108   -2.150746
H      -1.140713   -2.392748   -1.030818
H      -0.694055   -2.384236    0.669374
H      -3.139189   -2.295569    1.295196
H      -3.588213   -2.466845   -0.413953
H      -1.905561   -4.515943    1.175596
