17

C       0.009408    1.452102   -0.189198
N       0.074630   -0.000273   -0.217361
C      -1.186920   -0.706592   -0.067488
C      -1.117226   -2.159234   -0.523366
O      -2.100691   -2.792094   -0.808885
C       0.288011   -2.738204   -0.593922
N       1.191433   -1.981497    0.255223
C       1.259519   -0.596750    0.178544
O       2.274924    0.019737    0.446639
H       1.017320    1.843130   -0.317122
H      -0.634488    1.807432   -1.000211
H      -0.390936    1.827012    0.763532
H      -1.541388   -0.707503    0.978593
H      -1.958845   -0.206497   -0.659596
H       0.250831   -3.782097   -0.273006
H       0.586454   -2.731907   -1.656599
H       2.106333   -2.380199    0.406756
