18

C      -0.010467    1.662228   -0.038970
C       0.343734    0.193415   -0.125165
O       1.691233   -0.081780   -0.635112
C       1.922985   -1.003171    0.419778
C       1.930449   -0.319206    1.749636
O       2.336307    1.010174    1.936197
C       3.550791    1.352199    1.441173
N       3.986785    2.520094    1.627342
C       0.608079   -0.658089    1.122257
H       0.026504    2.111225   -1.036815
H      -1.033711    1.768468    0.337978
H       0.666364    2.203082    0.621725
H      -0.366357   -0.333234   -0.775479
H       2.419022   -1.938532    0.183912
H       2.185682   -0.967780    2.586406
H       4.045216    0.535637    0.903385
H       4.899173    2.621934    1.187623
H      -0.124735   -1.280155    1.618460
