18

O      -0.367695    0.346943   -0.890612
C      -0.234292    1.395154   -0.332249
C      -1.190087    2.087965    0.634721
C      -0.679759    3.536418    0.694092
C       0.813408    3.337106    0.345246
O       0.875444    2.171216   -0.489764
C      -1.378828    4.433242   -0.306366
C      -2.565808    5.227775    0.089690
N      -1.280663    5.896328   -0.194808
H      -2.220399    1.983448    0.291504
H      -1.110451    1.585721    1.604989
H      -0.784930    3.970275    1.694033
H       1.239221    4.172980   -0.214206
H       1.422142    3.161266    1.240037
H      -1.321996    4.083154   -1.336823
H      -3.355980    5.429472   -0.627391
H      -2.899714    5.161684    1.122626
H      -0.828316    6.147751    0.682182
