18

C       0.002227    1.564106    0.008669
C      -0.007663    0.025218    0.068408
C       0.743359   -0.515559    1.297309
O       2.086214   -0.106794    1.175601
C       2.883880   -0.519363    2.272694
C       4.253804   -0.063162    2.087127
C       5.390592    0.300704    1.958832
C      -1.375548   -0.499977    0.063981
N      -2.455727   -0.910643    0.075548
H       1.035321    1.914536    0.027531
H      -0.481317    1.921074   -0.903359
H      -0.528759    1.986838    0.866570
H       0.501493   -0.369531   -0.819361
H       0.289134   -0.117745    2.219708
H       0.667048   -1.613379    1.335312
H       2.478379   -0.113079    3.214484
H       2.865299   -1.618056    2.367174
H       6.395328    0.624351    1.840760
