18

N       0.401360    0.217532    0.895329
C      -0.189104    0.153504   -0.331134
O       0.054206    0.934424   -1.231505
C      -1.232982   -0.959399   -0.479940
C      -0.762146   -2.363482   -0.060116
O      -0.492140   -2.420195    1.354017
C      -1.321858   -3.393756    1.991379
C      -2.125060   -4.001292    0.877842
C      -1.801295   -3.430515   -0.275646
H       1.151931    0.877776    1.016624
H       0.284889   -0.541452    1.550251
H      -2.121006   -0.700641    0.108846
H      -1.519614   -0.970550   -1.534186
H       0.172362   -2.596898   -0.594051
H      -0.689246   -4.130454    2.509206
H      -1.952142   -2.911695    2.754429
H      -2.850216   -4.789178    1.035497
H      -2.207670   -3.656003   -1.253061
