20

C      -0.181707    1.414007    0.261990
C       0.018866   -0.058459    0.118442
C      -0.800174   -1.150670    0.768280
C       0.718666   -1.136469    0.914965
C       1.322377   -1.547494   -0.423677
O       0.546416   -0.539064   -1.126898
N       1.509620   -1.120615    2.100693
C       0.906857   -0.732229    3.371733
C       1.249493   -2.154457    3.109217
H       0.746244    1.955496    0.055087
H      -0.946116    1.764500   -0.440845
H      -0.513846    1.662575    1.273839
H      -1.359344   -0.838554    1.644868
H      -1.296892   -1.896100    0.151427
H       2.393284   -1.326611   -0.481201
H       1.122680   -2.560472   -0.792749
H       1.538303   -0.120145    4.009284
H      -0.148697   -0.473346    3.400051
H       0.420699   -2.835318    2.927571
H       2.130810   -2.603657    3.556921
