18

O       0.065397    1.176683    0.501040
C      -0.072651   -0.226480    0.415602
C      -1.374574   -0.621879   -0.275783
C      -1.655721   -2.133757   -0.298463
C      -2.495033   -2.361627    0.957507
O      -1.636512   -2.697979    2.041919
C      -3.118633   -0.996674    1.209388
N      -4.056665   -0.793737    2.030338
O      -2.479373   -0.044286    0.476499
H      -0.724393    1.503764    0.946566
H       0.772931   -0.593705   -0.176242
H      -0.031519   -0.712168    1.401903
H      -1.413567   -0.160994   -1.266186
H      -2.231707   -2.400239   -1.188140
H      -0.745057   -2.735901   -0.281286
H      -3.272155   -3.122224    0.824153
H      -2.155440   -2.592542    2.848955
H      -4.277664    0.200994    2.102695
