17

N       0.085876    1.515032    0.169030
C       0.042701    0.079898   -0.010480
C       0.620985   -0.624640    1.220477
O      -0.466177   -0.673946    2.138229
C      -1.567672   -1.149765    1.391262
C      -1.430764   -0.533653   -0.040624
O      -2.339577    0.523043   -0.297033
C      -1.557480   -1.568370   -1.076786
N      -1.672319   -2.382522   -1.890285
H      -0.461840    1.971317   -0.553876
H      -0.360578    1.756258    1.050150
H       0.572653   -0.181756   -0.929101
H       0.970041   -1.639338    0.973223
H       1.434378   -0.058735    1.676160
H      -1.558357   -2.248661    1.338989
H      -2.491040   -0.817488    1.872079
H      -3.214118    0.146494   -0.446028
