16

O      -0.576103    0.722063    0.612694
C       0.233086    0.928196   -0.260176
C       1.379850    1.842647   -0.103025
C       1.727706    2.673364    1.132986
C       2.134235    3.863691    0.209186
C       1.775503    3.021326   -1.034505
N       2.483579    1.755076   -1.050283
C       1.163969    3.516792   -2.221364
C       0.646141    3.986825   -3.199948
H       0.167153    0.455058   -1.261998
H       0.848708    2.888672    1.741295
H       2.506870    2.247663    1.772075
H       1.482254    4.729925    0.327895
H       3.176550    4.195465    0.242506
H       3.391590    1.804364   -0.590070
H       0.190737    4.387479   -4.071788
