20

C      -0.337349    1.393664    0.090067
N      -0.057930   -0.032802    0.157350
C       1.253132   -0.498113   -0.251201
C       0.853160   -0.556992    1.198846
C       1.542260    0.362221    2.198133
C       0.440859   -1.824471    1.758045
C       0.134779   -2.876081    2.262047
C      -0.314895   -4.136166    2.851056
O      -1.427290   -3.989959    3.724639
H       0.539551    2.044380    0.225691
H      -0.764745    1.610796   -0.894190
H      -1.083511    1.654954    0.846787
H       1.278326   -1.403863   -0.850675
H       2.007970    0.246053   -0.508165
H       1.914256    1.275503    1.729952
H       0.858124    0.637641    3.006938
H       2.393652   -0.157206    2.646855
H      -0.531955   -4.855780    2.045125
H       0.483601   -4.576603    3.458837
H      -2.095112   -3.482064    3.251994
