17

C      -0.025497    1.565219    0.039282
C       1.528177    1.505918   -0.018477
C       2.078908    1.315546    1.402413
N       1.812256   -0.081907    1.779050
C       0.571730   -0.686151    1.266781
C       1.896438   -0.915440    0.593289
C       1.442748    0.021032   -0.560690
C      -0.006878    0.024251    0.010916
H      -0.473637    2.071990    0.900643
H      -0.461872    1.969134   -0.879027
H       2.053248    2.263656   -0.602233
H       3.164811    1.458420    1.440894
H       1.620003    1.998342    2.124965
H       0.012111   -1.309287    1.956070
H       2.559577   -1.772253    0.561892
H       1.670410   -0.193508   -1.601502
H      -0.814030   -0.537309   -0.462249
