16

O       0.171891    1.291625   -0.468463
C      -0.000079    0.035019    0.148959
C      -1.430931   -0.493854    0.046930
C      -1.862349   -1.145961   -1.261388
C      -1.638824   -2.002648   -0.055186
C      -2.399013    0.276219    0.763216
C      -3.179841    0.966218    1.380917
C      -4.071451    1.730394    2.074368
N      -4.829233    2.383964    2.665849
H      -0.342006    1.940461    0.024653
H       0.664329   -0.657360   -0.377753
H       0.305802    0.053957    1.205342
H      -2.880511   -0.979546   -1.591292
H      -1.121771   -1.150462   -2.053199
H      -0.743233   -2.612673   -0.006590
H      -2.501052   -2.421983    0.448731
