15

O      -0.535785    0.559251    0.625540
C       0.173066    0.920194   -0.279337
C       1.371791    1.832732   -0.116327
C       1.290303    3.050159   -1.034903
C       2.562122    3.907736   -1.217994
C       2.410838    3.552147   -2.711258
O       1.293326    2.679818   -2.434468
H      -0.015748    0.597670   -1.325859
H       1.442425    2.141531    0.931444
H       2.272217    1.261300   -0.380957
H       0.394274    3.639339   -0.794368
H       2.470285    4.963107   -0.959244
H       3.451562    3.494768   -0.737876
H       2.122062    4.387478   -3.360949
H       3.244750    3.014109   -3.175710
