21

C      -0.213800    1.588139   -0.044838
C       0.046127    0.082434   -0.006707
C       0.833077   -0.509480   -1.204526
C       2.221849    0.138233   -1.335327
O       2.900139   -0.394219   -0.184099
C       1.951441   -1.290181    0.398211
O       1.217709   -1.800717   -0.696718
C       0.901610   -0.482852    1.195600
C       1.503421    0.524761    2.173173
H       0.703542    2.181021   -0.000262
H      -0.744902    1.865057   -0.962456
H      -0.840891    1.895265    0.797786
H      -0.924050   -0.423815    0.000551
H       0.275427   -0.617693   -2.134442
H       2.734198   -0.185395   -2.248877
H       2.213218    1.231301   -1.298601
H       2.479507   -2.085176    0.925535
H       0.290165   -1.196401    1.757995
H       2.193941    1.206681    1.672350
H       0.726264    1.114576    2.668488
H       2.067670    0.004681    2.955043
