16

C      -0.048866    1.387873    0.073840
N      -0.040628   -0.055387    0.126768
C      -1.210828   -0.847761   -0.179511
C      -0.667193   -2.295196   -0.022350
N       0.741571   -2.100741   -0.326195
C       1.123290   -0.777802   -0.053863
O       2.256797   -0.361668   -0.008353
C      -0.897733   -2.831938    1.333940
N      -1.070156   -3.277836    2.385920
H       0.976561    1.727235    0.228425
H      -0.404720    1.759591   -0.897736
H      -0.689438    1.800485    0.860205
H      -2.040627   -0.643628    0.502034
H      -1.558342   -0.690082   -1.211878
H      -1.144916   -2.972696   -0.735984
H       1.409131   -2.814178   -0.073432
