17

N      -0.105147    1.266828   -0.144458
C       0.017941   -0.073822    0.092861
O       0.993896   -0.615929    0.558376
O      -1.108291   -0.715671   -0.307205
C      -1.089004   -2.128621   -0.136696
C      -1.431534   -2.724019    1.272103
C      -2.575264   -3.488157    0.596477
N      -3.484369   -2.445810    0.071628
C      -2.294810   -2.844223   -0.722455
H       0.571047    1.858588    0.306628
H      -1.024150    1.641417   -0.309898
H      -0.143261   -2.526608   -0.507691
H      -0.624401   -3.342104    1.666387
H      -1.755347   -1.998984    2.021071
H      -2.926949   -4.490136    0.805152
H      -4.280418   -2.922740   -0.352011
H      -2.403382   -3.224022   -1.730692
