19

C       0.147094    1.664209   -0.139425
C       0.115749    0.150000   -0.097189
C       0.681605   -0.740855   -1.161043
C       1.622242   -0.103618   -2.192021
C       2.921672    0.243512   -1.439173
O       3.355117    1.569859   -1.656123
C       2.651383   -0.015260    0.055332
O       3.421637    0.335082    0.919569
C       1.345253   -0.712742    0.211798
H       1.050497    2.059216   -0.610970
H      -0.715786    2.046039   -0.696435
H       0.096549    2.075572    0.874008
H      -0.775168   -0.248413    0.382441
H       0.106659   -1.607673   -1.465841
H       1.819013   -0.804297   -3.006167
H       1.199305    0.800995   -2.637823
H       3.712637   -0.472139   -1.724784
H       3.926815    1.783538   -0.905039
H       1.251861   -1.488567    0.961791
