19

C       0.019476    1.290283   -0.327193
O      -0.112164    0.004490    0.246977
C      -1.366045   -0.621957    0.065638
C      -1.817165   -0.707347   -1.405693
O      -0.795535   -1.140920   -2.268924
C      -1.213976   -2.017699    0.696373
O      -0.455313   -2.893571   -0.105694
C      -0.566986   -1.894451    2.065462
O       0.432651   -2.508630    2.343462
H       0.968218    1.696167    0.031448
H       0.043367    1.239938   -1.421624
H      -0.792700    1.962347   -0.009886
H      -2.152488   -0.082964    0.628367
H      -2.712033   -1.352630   -1.446565
H      -2.129150    0.283091   -1.753948
H      -0.401947   -1.918892   -1.848647
H      -2.224874   -2.434228    0.841182
H       0.331803   -3.110768    0.421979
H      -1.068362   -1.223525    2.789708
