20

C      -0.043761    1.540572   -0.087643
C      -0.044923    0.081634    0.329507
C       0.994158   -0.907599   -0.295769
N       2.047848   -0.173645    0.519637
C       3.317798   -0.851516    0.784529
C       0.894444   -0.398173    1.485619
C       0.694572   -1.816188    0.913613
C      -0.161568   -2.964264    1.194021
O       1.284186   -3.027327    1.292957
H       0.974417    1.926905   -0.141263
H      -0.519323    1.659349   -1.067417
H      -0.613945    2.143971    0.627218
H      -1.057279   -0.327614    0.389874
H       1.146234   -1.167287   -1.344476
H       3.933729   -0.787685   -0.118960
H       3.839394   -0.302211    1.575691
H       3.243793   -1.904087    1.081928
H       0.929763   -0.061368    2.522762
H      -0.687916   -3.038326    2.144069
H      -0.589057   -3.543535    0.377434
