14

C       0.035155    1.543408   -0.064170
C      -0.008239    0.048612    0.034881
O       0.327021   -0.692298   -1.183746
C      -0.246838   -1.869009   -0.554691
C       0.569443   -2.015209    0.708180
C       0.729459   -0.737668    1.100409
C      -1.339287   -0.842746   -0.014673
O      -2.507952   -0.730254    0.112748
H       1.051826    1.887267   -0.277112
H      -0.626979    1.897507   -0.857841
H      -0.288393    1.989889    0.880633
H      -0.442326   -2.702926   -1.223058
H       0.845156   -2.936319    1.199686
H       1.174760   -0.334661    1.998515
