19

C       0.176750    1.548436    0.157489
N       1.158222    0.525335   -0.242000
C      -0.229434    0.124983    0.065462
C      -0.370640   -0.732063    1.290543
O      -1.744793   -0.869123    1.727539
C      -1.679078   -2.316354    1.705141
C      -0.267855   -2.252452    1.137002
C       0.406442   -3.037461    0.084338
N       0.832453   -3.126219    1.498458
H       0.354689    1.994925    1.131978
H      -0.197682    2.235916   -0.595721
H       1.295537    0.552247   -1.248454
H      -0.878172   -0.157225   -0.761088
H       0.270735   -0.332892    2.090606
H      -1.744669   -2.751540    2.709951
H      -2.455583   -2.751500    1.064805
H      -0.058893   -3.938015   -0.308241
H       1.042199   -2.505514   -0.618391
H       1.679145   -2.579228    1.641571
