21

C       0.012979    1.539238   -0.020492
C       0.022364    0.005730    0.040570
C       0.850921   -0.480120    1.238968
C      -1.419144   -0.533452    0.060728
C      -1.526300   -2.053521   -0.060695
C      -2.957306   -2.552663   -0.161444
O      -3.925019   -1.823466   -0.158554
C      -3.100409   -3.998746   -0.265193
C      -3.197689   -5.195678   -0.349013
H       1.030500    1.939884   -0.075899
H      -0.539732    1.900776   -0.893749
H      -0.462315    1.962694    0.872348
H       0.505724   -0.363897   -0.876245
H       1.862798   -0.063164    1.207971
H       0.391632   -0.164273    2.183639
H       0.947343   -1.569930    1.263211
H      -1.920237   -0.209172    0.981512
H      -1.987648   -0.079970   -0.758607
H      -0.987478   -2.423305   -0.945438
H      -1.061544   -2.571857    0.788308
H      -3.303903   -6.250640   -0.423795
