15

O       0.017731    1.469666   -0.139472
C       1.266306    0.808576    0.005352
C       0.008394    0.041430   -0.026384
C      -0.055084   -0.714564   -1.392623
N      -0.819891    0.160827   -2.307928
C       0.048537    0.959622   -2.781095
N       1.442576    0.627452   -2.637331
C       2.042703    0.495445   -1.261183
C       1.397841   -0.662008   -1.929428
H       1.829083    1.047246    0.905275
H      -0.505172   -0.347836    0.847861
H      -0.495589   -1.706261   -1.297151
H      -0.195900    1.828265   -3.383002
H       3.116223    0.651977   -1.250786
H       1.913654   -1.511158   -2.367166
