15

C      -0.012711   -1.161979   -0.004169
C       0.021876    0.038195    0.002410
C       0.015400    1.493596    0.010912
O       1.367784    1.959007   -0.002604
C       1.510802    3.301855    0.003438
C       2.710605    3.971074   -0.007074
N       2.349168    5.307394    0.004974
C       0.996500    5.371333    0.021555
N       0.454836    4.167643    0.021098
H      -0.037593   -2.223458   -0.010081
H      -0.525288    1.884539   -0.860199
H      -0.504198    1.874351    0.899201
H       3.732876    3.639301   -0.021238
H       2.983212    6.088014    0.001874
H       0.456169    6.305253    0.033425
