17

C       0.067219    1.573361   -0.110893
C      -0.025434    0.043645   -0.011370
O       0.480619   -0.590197   -1.185055
C       0.630808   -0.454190    1.202193
C       1.209951   -0.853050    2.182929
C       1.909117   -1.345426    3.335501
C       1.208189   -2.246146    4.301527
N       2.256169   -2.786370    3.432923
H       1.114281    1.892153   -0.136096
H      -0.424681    1.906794   -1.028272
H      -0.412964    2.050679    0.748221
H      -1.084153   -0.242156    0.013708
H       1.439186   -0.489927   -1.174192
H       2.689350   -0.695514    3.723456
H       1.467575   -2.190460    5.354888
H       0.170693   -2.488589    4.092374
H       1.830858   -3.275918    2.648862
