18

C       0.387515    1.331221    0.386752
C      -0.182587    0.034564   -0.150429
O       0.778899   -0.557559   -0.966653
C       0.393325   -1.763579   -1.609485
C      -0.111312   -2.825728   -0.617335
O       0.620811   -2.771204    0.606595
C       0.404103   -1.680959    1.396606
N       0.980375   -1.491151    2.500681
O      -0.560307   -0.839853    0.940360
H       1.288959    1.122482    0.967551
H       0.636599    1.999646   -0.441381
H      -0.346086    1.814307    1.035059
H      -1.127098    0.189273   -0.692139
H      -0.379752   -1.578647   -2.370940
H       1.299209   -2.108028   -2.113953
H      -1.179204   -2.707117   -0.417423
H       0.060542   -3.826196   -1.021735
H       1.604324   -2.272590    2.701441
