18

C       0.532986    1.125096   -0.308253
N       0.114965   -0.115418    0.356562
C      -1.267996   -0.444085    0.204779
C      -2.213538    0.205136    1.136518
O      -3.411683    0.017209    1.121859
C      -1.867513   -0.847306   -1.184357
O      -1.034806   -0.823908   -2.291906
C      -1.650777   -1.895721   -0.160749
O      -0.618803   -2.781338   -0.472808
H       1.603754    1.270954   -0.138412
H       0.335869    1.134160   -1.387506
H       0.012528    1.974732    0.145602
H       0.684000   -0.890331    0.037273
H      -1.733481    0.883492    1.874752
H      -2.882094   -0.511610   -1.375939
H      -0.533475   -1.649054   -2.296443
H      -2.507715   -2.308284    0.366847
H      -0.309857   -3.204429    0.335200
