16

O      -0.099693   -0.085307    0.623565
C      -0.092071    1.100510    0.380523
N       0.979001    1.781252   -0.156376
C       2.210181    1.081858   -0.293439
C       3.156137    1.336777   -1.202311
C       3.150385    2.368859   -2.231237
C       2.460409    3.522740   -2.193755
C       1.584920    3.960986   -1.114927
C       0.947264    3.199030   -0.219859
H      -0.951672    1.770675    0.567940
H       2.308979    0.270004    0.418063
H       4.030555    0.693037   -1.168500
H       3.810347    2.194141   -3.076812
H       2.593876    4.228772   -3.008846
H       1.434399    5.032580   -1.017790
H       0.336001    3.661821    0.549430
