21

C      -0.210186    1.515083    0.061162
C      -0.035461    0.031239   -0.014252
C      -0.116350   -0.741309   -1.099102
C       0.094863   -2.205360   -0.810001
C       0.483616   -2.205878    0.676369
C       0.294403   -3.432894    1.542490
C       1.678813   -2.996989    1.133316
O       2.376751   -3.722174    0.163124
C       0.244316   -0.793394    1.225697
H       0.688781    2.002408    0.460647
H      -0.421799    1.947074   -0.920892
H      -1.033313    1.785016    0.735816
H      -0.328565   -0.374553   -2.098464
H      -0.819983   -2.786426   -0.996732
H       0.878603   -2.656543   -1.428065
H      -0.010184   -3.302733    2.576874
H      -0.099851   -4.322309    1.059425
H       2.310746   -2.539275    1.896521
H       2.598562   -4.581837    0.534889
H       1.107091   -0.412478    1.790106
H      -0.610113   -0.757248    1.918583
