17

O       0.034083    0.016109   -0.457099
C      -0.002538    1.180172   -0.161891
C      -1.266784    2.047143   -0.030717
C      -0.753303    3.486106    0.115586
C      -1.007553    4.198857    1.465616
C       0.392841    3.694874    1.891291
N       0.706563    3.393530    0.470866
C       1.216208    2.074080    0.144694
H      -1.924883    1.881965   -0.886879
H      -1.809312    1.704411    0.858927
H      -0.944587    4.074003   -0.787689
H      -1.059111    5.284295    1.366743
H      -1.860542    3.851333    2.050822
H       1.072356    4.416849    2.354855
H       0.349020    2.801318    2.532656
H       1.804822    1.641082    0.961074
H       1.863832    2.089763   -0.742913
