20

C      -0.980066    0.991730   -0.018522
N      -0.127187   -0.183828    0.130688
C       0.679590   -0.291275    1.230689
O       0.671510    0.459668    2.183851
C       0.060248   -1.011017   -1.022721
C       0.251569   -2.499595   -0.881137
C      -1.024138   -1.966974   -1.482648
C      -2.312944   -2.129115   -0.723002
O      -3.246635   -1.172647   -1.216379
H      -0.541560    1.702938   -0.731244
H      -1.963484    0.688674   -0.384074
H      -1.057343    1.474243    0.955515
H       1.347995   -1.168867    1.164302
H       0.617369   -0.531648   -1.827785
H       0.978317   -2.985685   -1.521342
H       0.182974   -2.923114    0.114773
H      -1.137393   -2.053526   -2.559044
H      -2.692698   -3.152276   -0.868197
H      -2.131199   -1.991612    0.353016
H      -4.083029   -1.307676   -0.760337
