17

O      -0.005746   -0.024115    0.162214
C       0.079657    1.131492   -0.153948
C       1.305861    1.968305   -0.047382
C       1.092667    3.452104    0.211065
C       1.528047    2.995805   -1.154567
C       2.978482    3.156915   -1.602520
O       3.781110    2.044012   -1.225454
C       3.661768    1.775901    0.135117
O       2.384627    1.279271    0.488538
H      -0.789297    1.698209   -0.565919
H       0.075982    3.805233    0.345414
H       1.826398    3.942238    0.842780
H       0.784953    3.023162   -1.945092
H       3.035226    3.210646   -2.691333
H       3.412760    4.081742   -1.191909
H       4.366846    0.980676    0.381385
H       3.893235    2.681369    0.726835
