16

O       0.846531   -0.636762   -1.035320
C       0.153086   -0.002289    0.024154
C      -1.310324   -0.401418    0.023160
C      -2.354358    0.300335    0.933211
C      -3.097230    0.648341   -0.356110
C      -2.236156    1.428244   -1.258771
N      -2.071868   -0.043555   -1.242497
H       0.303017   -0.530846   -1.825277
H       0.625835   -0.329954    0.957494
H       0.264527    1.093159   -0.023058
H      -1.367480   -1.489122    0.117728
H      -2.884087   -0.394405    1.586297
H      -2.017348    1.154833    1.528902
H      -4.162185    0.524404   -0.523270
H      -2.663758    1.777651   -2.193288
H      -1.463092    2.073867   -0.849325
