25

C       0.138677    1.456263   -0.440660
C       0.184671   -0.034682   -0.181808
C       1.510193   -0.759284   -0.154134
C       0.690233   -0.638308    1.103058
C       1.160469    0.016525    2.423357
C       0.416629    1.257438    2.916679
C       0.763205   -1.303278    3.157794
C       0.106761   -1.853729    1.854549
C      -1.414296   -1.974395    1.888719
H       1.002662    1.963821   -0.001237
H       0.151815    1.660451   -1.517455
H      -0.764970    1.915900   -0.026034
H      -0.633277   -0.583496   -0.645296
H       1.590064   -1.734285   -0.626430
H       2.409511   -0.153255   -0.231126
H       2.237599    0.214138    2.441512
H      -0.669042    1.118284    2.874135
H       0.682884    1.466448    3.959295
H       0.660417    2.146391    2.327832
H       1.617453   -1.890713    3.502162
H       0.076098   -1.169378    3.999198
H       0.534867   -2.806228    1.522754
H      -1.883372   -1.040012    2.215382
H      -1.820924   -2.221217    0.901602
H      -1.725391   -2.764228    2.581935
