15

C      -0.000247    1.520026    0.005023
C       0.029171    0.065922    0.011431
C       0.047685   -1.140367    0.016418
C       0.052909   -2.551223    0.021419
C       1.139089   -3.415530    0.078689
N       0.649519   -4.670461    0.058404
N      -0.707450   -4.712568   -0.009381
C      -1.061366   -3.439331   -0.031369
O      -2.348291   -3.055263   -0.097066
H       0.540867    1.930055   -0.855642
H      -1.030149    1.890405   -0.046170
H       0.455213    1.936085    0.911177
H       2.195838   -3.208210    0.130892
H       1.160319   -5.534827    0.086816
H      -2.883751   -3.858465   -0.121183
