21

C      -0.121553    1.577900   -0.017580
C       0.076032    0.059326    0.010648
C       0.862667   -0.509681   -1.208165
O       1.870236    0.384971   -1.662774
C       1.482136   -1.820662   -0.671520
C       1.631053   -1.532912    0.804502
C       0.868102   -0.504592    1.183949
C       0.707594    0.018434    2.574785
O       1.497571   -0.744516    3.469350
H       0.834551    2.107130   -0.027861
H      -0.669339    1.877561   -0.916250
H      -0.695539    1.918719    0.850378
H      -0.921152   -0.410165    0.015533
H       0.213770   -0.665113   -2.074238
H       2.511923    0.474179   -0.948114
H       0.814402   -2.678221   -0.839310
H       2.421528   -2.045340   -1.188107
H       2.241407   -2.121893    1.476871
H       0.989897    1.085134    2.604036
H      -0.362260   -0.018746    2.851549
H       1.405487   -0.364176    4.347251
