22

C       0.106781    0.910451   -0.526109
O      -0.342352   -0.011141    0.458001
C      -1.204759   -0.955883    0.019327
N      -1.608268   -1.846225    0.807573
C      -2.580360   -2.846982    0.395889
C      -2.803958   -3.130446   -1.103865
C      -1.575155   -3.776588   -1.757432
C      -4.046929   -4.022470   -1.258573
O      -4.394176   -4.285230   -2.609247
H       0.741363    1.630015   -0.007317
H       0.695543    0.412558   -1.306803
H      -0.730317    1.444438   -0.993142
H      -1.485828   -0.838573   -1.036175
H      -2.291299   -3.786689    0.886383
H      -3.539545   -2.567512    0.855921
H      -3.035352   -2.193022   -1.626747
H      -0.675032   -3.172489   -1.619488
H      -1.375497   -4.761292   -1.316145
H      -1.721202   -3.906316   -2.834686
H      -3.900978   -4.960186   -0.696545
H      -4.916988   -3.518558   -0.823917
H      -3.745237   -4.896389   -2.969392
