15

C       0.453099    1.488127   -0.008259
C       0.118416    0.016854    0.075769
O       0.895612   -0.814916   -0.841350
C       1.300227   -1.702490    0.220425
C       0.610984   -0.815529    1.273731
O       1.911710   -0.396250    1.778564
C       2.582062   -1.240162    0.893323
N       3.801094   -1.483238    0.761440
H       1.494919    1.665908    0.265367
H       0.289679    1.846875   -1.028578
H      -0.191757    2.063243    0.664569
H      -0.951544   -0.158554   -0.102901
H       1.142228   -2.758801    0.006178
H      -0.061663   -1.116553    2.073680
H       4.369719   -0.937155    1.411448
