17

O       0.062395    1.375918    0.126909
C      -0.051229   -0.010739    0.047777
C      -1.436897   -0.661965    0.052505
C      -2.239495   -0.186254   -1.116744
C      -1.192570   -1.238070   -1.354950
C       0.189823   -0.588645   -1.426444
O       0.371008    0.411382   -2.389240
C       1.341272   -1.551790   -1.455612
O       2.290728   -1.387906   -2.186238
H       0.172289    1.684444   -0.785782
H       0.612564   -0.471110    0.789472
H      -1.886248   -1.149451    0.908176
H      -3.260020   -0.551445   -1.158467
H      -2.107397    0.818402   -1.503342
H      -1.439235   -2.216694   -1.748836
H       1.252950    0.255587   -2.768697
H       1.280658   -2.408100   -0.755129
