13

N       0.013559    1.306713    0.009400
N       1.260297    1.853033    0.000397
C       2.108043    0.844147   -0.013571
C       1.418178   -0.404714   -0.013984
C       0.048842   -0.048427    0.001345
N      -0.976760   -0.901279    0.006453
C      -0.584388   -2.170752   -0.004586
N       0.675502   -2.655630   -0.019581
C       1.672641   -1.777920   -0.024271
H      -0.794729    1.906177    0.020668
H       3.170747    1.036242   -0.022798
H      -1.374421   -2.916952   -0.001155
H       2.684303   -2.178492   -0.036375
