13

N      -0.050862    1.224950   -0.304386
C      -0.024424   -0.021559   -0.055518
C       1.208422   -0.832311    0.151038
N       1.514855   -1.912217   -0.457353
C       0.654088   -2.514766   -1.361697
C      -0.688481   -2.509152   -1.380397
O      -1.553604   -1.907221   -0.518109
C      -1.354503   -0.721392    0.151367
O      -2.205016   -0.318872    0.881307
H       0.901360    1.600790   -0.361024
H       1.926553   -0.427558    0.867601
H       1.142503   -3.140267   -2.101524
H      -1.231921   -3.110961   -2.099116
