21

C       0.331012    1.571923   -0.068507
C       0.018782    0.063826   -0.013153
C       0.360362   -0.628087   -1.310462
C       0.891394   -1.849203   -1.410182
C       1.244754   -2.719244   -0.233390
C       1.269491   -1.988153    1.097855
C       2.164438   -0.784124    1.270380
O       3.044566   -0.346809    0.274813
C       0.667573   -0.589467    1.200319
H       1.407128    1.739169   -0.165757
H      -0.174681    2.048862   -0.915207
H      -0.006285    2.068583    0.846888
H      -1.071484   -0.035431    0.109827
H       0.112713   -0.080113   -2.217827
H       1.066646   -2.276229   -2.395081
H       0.518251   -3.542592   -0.179172
H       2.215543   -3.201670   -0.414271
H       1.159441   -2.635953    1.962980
H       2.635303   -0.649543    2.238983
H       2.626421   -0.485118   -0.584132
H       0.181159   -0.336892    2.139228
