22

C       0.016033    1.576534   -0.003336
C       0.009938    0.044989   -0.002802
C       0.686899   -0.528345   -1.259225
C       0.677124   -2.068535   -1.266264
C       1.251840   -2.620703    0.012580
C       0.683703   -2.062624    1.292979
C       0.679668   -0.520930    1.260372
N       2.179318   -3.492122   -0.099098
O       2.647320   -3.953415    1.146475
H       1.041590    1.964510    0.001528
H      -0.486114    1.976797   -0.890436
H      -0.493717    1.976396    0.879735
H      -1.038333   -0.292496   -0.005647
H       0.190990   -0.152391   -2.161664
H       1.725724   -0.172721   -1.300001
H      -0.363499   -2.412842   -1.361263
H       1.231777   -2.470444   -2.117758
H      -0.351415   -2.420042    1.392652
H       1.239831   -2.437646    2.152070
H       1.716111   -0.159309    1.305742
H       0.177533   -0.139104    2.156843
H       3.335335   -4.571393    0.879669
