14

O       0.104041    1.253546   -0.345941
C       0.118816   -0.082588    0.124080
C      -1.300224   -0.585950    0.262876
O      -1.943470   -1.053992   -0.914371
C      -1.708782   -2.021241    0.103596
C      -0.691488   -3.108321   -0.195613
O       0.150782   -3.008170   -1.043854
C      -2.879216   -2.486028    0.825518
N      -3.783946   -2.898300    1.414464
H      -0.164707    1.235347   -1.270976
H       0.694266   -0.747998   -0.526189
H       0.590110   -0.058536    1.112323
H      -1.941592    0.016031    0.908045
H      -0.794795   -4.007595    0.444670
