17

C       0.082765    1.465969    0.058986
N       0.200030    0.015246    0.043234
C       0.556031   -0.529109   -1.252044
C       0.622830   -2.045956   -1.207893
C       1.543317   -2.763531   -2.139458
N       1.852202   -2.708416   -0.708815
C      -0.609220   -2.704421   -0.816189
N      -1.601795   -3.232230   -0.549000
H       0.989567    1.999057   -0.279682
H      -0.743350    1.771446   -0.592768
H      -0.152229    1.800670    1.072732
H       0.861701   -0.292604    0.747655
H      -0.212033   -0.220852   -1.973074
H       1.523983   -0.159938   -1.648439
H       1.264192   -3.744402   -2.509686
H       2.115402   -2.151361   -2.831656
H       2.559354   -1.997718   -0.530755
