20

C      -0.092356    1.553357    0.079097
C      -0.016946    0.017941    0.050095
C       0.673393   -0.503248    1.321247
C      -1.434549   -0.570364   -0.050049
C       0.772546   -0.450500   -1.212207
C       2.145593    0.018151   -1.283040
C       3.288510    0.408900   -1.340889
C       4.578953    0.848177   -1.409256
N       5.677483    1.222646   -1.466686
H       0.904165    2.001494    0.135831
H      -0.587369    1.943492   -0.817163
H      -0.663362    1.892503    0.949269
H       0.115365   -0.198926    2.212460
H       0.731027   -1.597416    1.321481
H       1.691132   -0.112098    1.412386
H      -1.950319   -0.219763   -0.950744
H      -1.412093   -1.665319   -0.077643
H      -2.034946   -0.271449    0.814970
H       0.776054   -1.547963   -1.246990
H       0.242095   -0.114416   -2.112937
