17

O      -0.014434    1.378460    0.276043
C       0.063131    0.001346   -0.034469
C       0.705803   -0.777867    1.125659
C      -0.007397   -1.871230    1.408615
C      -0.883766   -2.152747    2.620168
C      -2.049981   -1.745177    1.632312
O      -2.071794   -0.350484    1.190215
C      -1.340501   -0.650118   -0.059548
C      -1.162054   -2.086083    0.423942
H      -0.619196    1.440453    1.028507
H       0.562235   -0.067211   -1.008571
H       1.367583   -0.256868    1.809223
H      -1.023277   -3.208378    2.881428
H      -0.706228   -1.562311    3.521370
H      -3.058574   -2.112516    1.839203
H      -1.957491   -0.408360   -0.929872
H      -1.230073   -2.975866   -0.197037
