19

C       1.084303    1.042627   -0.166691
C       0.019126    0.051032    0.225558
O       0.451192   -1.256200    0.623669
C      -0.186228   -0.431461    1.602179
C       0.599249    0.088435    2.768615
O       0.670265   -0.746959    3.929376
C       1.893240   -0.433393    3.242632
C       2.639628   -1.609876    2.660961
O       3.374462   -2.273021    3.679872
H       1.913869    1.043168    0.543681
H       1.480934    0.799997   -1.157721
H       0.663675    2.052958   -0.213512
H      -0.852249    0.033068   -0.431558
H      -1.187536   -0.767736    1.878391
H       0.371307    1.130726    3.006794
H       2.533969    0.258260    3.793952
H       1.947979   -2.281725    2.143987
H       3.377054   -1.260024    1.930825
H       2.732157   -2.620212    4.308476
