18

N       0.120233    1.400582    0.016017
C      -0.005797   -0.035104   -0.018749
C      -0.478990   -0.818032   -1.223630
C      -1.330655   -0.744594    0.026281
C      -1.201827   -1.900023    1.025686
N       0.036798   -1.670494    1.803791
C       0.902591   -0.797211    0.984925
C       1.951695   -1.587405    0.315108
N       2.775751   -2.188497   -0.228315
H       0.826608    1.714301   -0.644518
H      -0.750133    1.841327   -0.262571
H      -0.800840   -0.240720   -2.084838
H       0.004435   -1.759463   -1.469191
H      -2.256539   -0.179146   -0.007571
H      -2.056380   -1.958890    1.704421
H      -1.132827   -2.862676    0.505701
H      -0.201427   -1.150680    2.640730
H       1.400028   -0.060179    1.620397
