17

C       0.159083    0.867944    0.351921
O      -0.237474   -0.056719   -0.648219
C      -1.430895   -0.694782   -0.365474
C      -1.659657   -2.071697   -0.870824
N      -0.432862   -2.872648   -0.821091
C      -0.264114   -2.650266    0.564848
O       0.592831   -2.992021    1.329242
C      -1.560248   -1.845088    0.654723
N      -2.583509   -1.828853    1.633866
H       1.090194    1.324813    0.011290
H      -0.595998    1.654837    0.493065
H       0.334209    0.364709    1.312098
H      -2.310729   -0.046961   -0.338841
H      -2.512983   -2.397154   -1.450777
H       0.334725   -2.687740   -1.457785
H      -2.788386   -2.765330    1.967969
H      -2.312903   -1.272438    2.438444
