18

C      -0.235357    1.569219   -0.077065
C       0.103903    0.084770   -0.055795
N       0.998348   -0.302741   -1.161048
C       1.859138   -1.101443   -0.666505
N       1.766279   -1.403059    0.681607
C       2.849073   -1.971632    1.459120
C       0.820796   -0.440573    1.251433
C       1.516446    0.610580    2.021781
N       2.079627    1.412231    2.635519
H       0.665983    2.179455    0.022092
H      -0.712213    1.813664   -1.029205
H      -0.921902    1.831965    0.733928
H      -0.823375   -0.494159   -0.163217
H       2.636482   -1.589038   -1.248581
H       3.460112   -2.597567    0.804380
H       3.491539   -1.204165    1.912130
H       2.452301   -2.605914    2.258489
H       0.113464   -0.929272    1.928865
