20

C      -0.085032    1.577760    0.070432
C       0.036805    0.063609   -0.025699
C       1.132827   -0.547220   -0.972684
C       1.711144   -1.297801    0.235935
N       2.082541   -0.226449    1.217292
C       0.683531   -0.689874    1.156759
C      -0.014896   -1.262758    2.349908
C       2.320807   -2.579178    0.270818
C       2.827690   -3.671863    0.286804
H       0.876627    2.020301    0.343087
H      -0.403191    2.005962   -0.886227
H      -0.824028    1.869893    0.825065
H      -0.934764   -0.386890   -0.253981
H       0.720088   -1.209161   -1.735640
H       1.825148    0.163207   -1.430805
H       2.523376   -0.696152    2.008933
H      -0.264916   -0.479716    3.075604
H      -0.946762   -1.757852    2.057608
H       0.616282   -2.003070    2.853029
H       3.278341   -4.633088    0.300637
