13

N      -0.261735    1.239282   -0.347772
C      -0.069946    0.029509   -0.066953
O       1.213323   -0.521938    0.023568
C       1.664661   -1.478161   -0.849657
O       2.838821   -1.718895   -0.893949
C       0.683522   -2.203645   -1.694696
C      -0.610362   -2.431021   -1.420944
C      -1.340856   -1.896130   -0.269560
N      -1.109214   -0.804795    0.347696
H       0.615548    1.690311   -0.606348
H       1.154768   -2.697244   -2.537714
H      -1.163593   -3.114274   -2.060371
H      -2.184866   -2.490828    0.085077
