17

O      -0.439936    0.654398    0.781966
C       0.149635    1.060423   -0.186894
C       1.412683    1.863218   -0.137478
C       2.166483    1.901903    1.169973
C       3.134084    3.044891    1.281311
C       3.232310    4.042536    0.407450
C       2.377857    4.181674   -0.821983
C       1.524469    2.969984   -1.122232
O       2.190031    1.735313   -1.343270
H      -0.202157    0.866178   -1.224567
H       1.425978    1.936764    1.979449
H       2.692042    0.946417    1.302458
H       3.786128    3.029423    2.150611
H       3.961248    4.831389    0.572086
H       1.711329    5.050252   -0.719859
H       3.002363    4.395167   -1.700768
H       0.687247    3.144724   -1.800704
