17

C      -0.083756    1.549110    0.133310
C      -0.009069    0.027574   -0.014394
C       0.737608   -0.467452   -1.291347
C       0.025327   -0.022840   -2.583803
N       2.145453   -0.049993   -1.380738
C       0.730526   -1.946559   -1.243547
N       0.701537   -3.099619   -1.175699
H       0.911745    2.005232    0.136839
H      -0.667346    2.014210   -0.666462
H      -0.562978    1.809362    1.081293
H       0.502327   -0.400210    0.856051
H      -1.019668   -0.396960   -0.014715
H       0.047576    1.067611   -2.666040
H       0.533334   -0.442994   -3.453592
H      -1.017651   -0.348215   -2.587411
H       2.189891    0.958875   -1.486860
H       2.638086   -0.282519   -0.522852
