16

C      -0.010856   -1.227270   -0.022070
C      -0.025876   -0.028364    0.063042
C      -0.005132    1.425175    0.159023
C       1.391699    2.022147   -0.151089
C       1.408075    3.514144   -0.041876
N       0.838988    4.300744   -0.962853
N       1.046867    5.523285   -0.493620
N       1.704148    5.619301    0.652021
C       1.943509    4.344158    0.961387
H      -0.013952   -2.286419   -0.095571
H      -0.734448    1.857975   -0.535483
H      -0.316393    1.735494    1.164210
H       2.125780    1.596853    0.539215
H       1.686354    1.719758   -1.160281
H       0.731568    6.340243   -0.991402
H       2.478034    4.082531    1.860939
