22

C       0.318492    1.358702   -0.514790
C       0.496857   -0.140250   -0.347272
O       0.703306   -0.416921    1.029080
C       0.781381   -1.774708    1.318439
C       2.140595   -2.549276    1.183829
C       2.682599   -1.682566    2.355816
C       1.249689   -2.154138    2.742290
N       1.502972   -3.530119    2.148747
C       2.366387   -4.452594    2.875872
H       1.206445    1.892947   -0.164970
H       0.155766    1.607724   -1.567644
H      -0.541374    1.709004    0.063135
H      -0.393777   -0.680400   -0.707196
H       1.353762   -0.498097   -0.939828
H      -0.085573   -2.339091    0.955513
H       2.653300   -2.889428    0.281869
H       3.514725   -2.084671    2.932281
H       2.809551   -0.616793    2.163629
H       0.709046   -2.022531    3.681381
H       1.786606   -4.897045    3.691833
H       2.654024   -5.262924    2.197564
H       3.287361   -4.032762    3.307974
