16

O       0.235458    0.934316    0.752733
C      -0.132020    0.369147   -0.506423
C      -1.442887   -0.361249   -0.349507
O      -2.452794    0.446131    0.182402
C      -1.998647   -1.381283   -1.287988
O      -1.096066   -2.005167   -2.194847
C      -0.223039   -2.694946   -1.410513
N      -0.377422   -2.674645   -0.148159
C      -1.522985   -1.827998    0.097158
H       0.532217    0.209281    1.314603
H      -0.265460    1.215333   -1.187157
H       0.658345   -0.273774   -0.905223
H      -2.034043    0.922601    0.912990
H      -3.015872   -1.315827   -1.652527
H       0.551163   -3.223793   -1.952312
H      -2.175981   -2.082034    0.922936
