21

C      -0.039624    1.571501   -0.075138
C       0.018390    0.041639   -0.021630
C       0.644288   -0.558482   -1.286399
O       0.721353   -1.969619   -1.198705
C       1.692064   -2.379501   -0.252426
C       1.384468   -1.884163    1.175501
O       2.576582   -1.381401    1.829185
C       2.155043   -0.015923    1.620020
C       0.731294   -0.478348    1.230287
H       0.963910    2.008755   -0.125759
H      -0.594591    1.914705   -0.954704
H      -0.535855    1.979304    0.811457
H      -1.009721   -0.342753    0.014661
H       0.025524   -0.333714   -2.160847
H       1.647471   -0.133500   -1.467493
H       1.720422   -3.471474   -0.296676
H       2.688193   -1.999810   -0.531763
H       0.905373   -2.664695    1.775147
H       2.252472    0.588832    2.527603
H       2.724740    0.466020    0.812622
H       0.067084   -0.395772    2.094863
