13

N      -0.151601    1.435710   -0.048694
C      -0.061656    0.029569   -0.006931
C      -1.136157   -0.812455   -0.087674
O      -2.443965   -0.572903   -0.215930
N      -0.622253   -2.074361   -0.009588
C      -1.327774   -3.293605   -0.046840
O      -0.814500   -4.369866    0.026768
N       0.762679   -1.994116    0.118509
N       1.067280   -0.745127    0.117227
H       0.373032    1.819956   -0.829016
H       0.221344    1.858513    0.796252
H      -2.537934    0.391856   -0.247469
H      -2.410731   -3.112607   -0.152718
