18

C      -0.580936    1.755761   -0.169542
C      -0.146475    0.334849    0.230513
C      -1.254471   -0.676293    0.021639
N      -1.526840   -1.257299   -1.095927
O      -0.660928   -0.839490   -2.111086
C      -2.088652   -1.002607    1.128857
C      -2.746882   -1.219965    2.116000
C      -3.575400   -1.516490    3.276114
O      -3.011019   -0.914343    4.433551
H       0.234847    2.464736    0.000121
H      -0.852401    1.790123   -1.227403
H      -1.442964    2.083527    0.419194
H       0.714493    0.030531   -0.370533
H       0.147844    0.315838    1.283094
H      -0.961420   -1.365245   -2.859973
H      -4.597033   -1.146161    3.088766
H      -3.651153   -2.610725    3.388358
H      -3.583462   -1.130015    5.176847
