20

C      -0.632197    1.272727   -0.076604
O      -0.092304   -0.029925   -0.100792
C       0.622785   -0.402067    1.066533
C      -0.281491   -0.687558    2.266011
C       1.413433   -1.635021    0.652322
C       2.610652   -1.431133   -0.294384
C       3.426998   -1.901135    0.890925
N       4.644007   -2.097540    1.113705
O       2.326492   -2.070778    1.714674
H       0.142074    2.028065    0.129115
H      -1.054437    1.461630   -1.066483
H      -1.430782    1.384129    0.670060
H       1.342000    0.392331    1.331951
H      -1.037692   -1.433490    2.000857
H       0.317030   -1.073279    3.095716
H      -0.792313    0.215962    2.609200
H       0.736032   -2.449248    0.378356
H       2.653553   -2.083932   -1.166907
H       2.791711   -0.400361   -0.603052
H       4.796940   -2.433941    2.066082
