20

C       0.047920    1.609948    0.151536
C       0.056980    0.076266    0.093113
C       0.792657   -0.534093    1.291809
O      -1.295619   -0.447709    0.009146
C      -2.177385   -0.199623    0.995596
N      -3.351270   -0.658124    0.908297
C       0.702173   -0.416120   -1.218815
C       0.020024    0.096458   -2.473145
O       0.600718    0.648050   -3.373823
H       1.068397    1.991847    0.054835
H      -0.550346    2.027851   -0.662781
H      -0.355036    1.978615    1.098638
H       0.365272   -0.199079    2.241134
H       0.740840   -1.625605    1.255347
H       1.844900   -0.235357    1.279469
H      -1.783348    0.401869    1.821854
H      -3.890331   -0.385784    1.727774
H       1.756468   -0.130613   -1.256278
H       0.635452   -1.511955   -1.233375
H      -1.073376   -0.086487   -2.514524
