16

O       0.376473   -0.257927    0.265695
C       0.405290    0.707648   -0.450090
C       0.841652    2.092748    0.013092
N       0.766867    3.039493   -1.078808
C       1.097338    4.243643   -0.859924
C       1.093086    5.394584   -1.860075
N       1.555649    6.585036   -1.130897
C       1.782711    6.194311    0.060558
N       1.545207    4.846674    0.316360
H       0.112712    0.670877   -1.522257
H       0.195806    2.368862    0.864125
H       1.861114    1.991698    0.423089
H       1.752966    5.185243   -2.708665
H       0.090835    5.561505   -2.268693
H       2.139605    6.834603    0.860787
H       1.675498    4.385563    1.200047
