21

C      -0.111876    1.577302   -0.102557
C       0.014066    0.068761    0.075699
O       0.673021   -0.488604   -1.069615
C       1.888280   -1.071310   -0.637095
O       2.181563   -0.543179    0.626333
C       0.906824   -0.400965    1.255209
C       1.013732    0.498157    2.451056
C       0.000402    0.369065    3.564646
C       1.421659   -0.079042    3.782058
H       0.875483    2.046950   -0.139932
H      -0.624743    1.790616   -1.044227
H      -0.687877    2.024305    0.713597
H      -0.983470   -0.381134    0.155618
H       1.777079   -2.170608   -0.587429
H       2.695858   -0.810504   -1.329492
H       0.554018   -1.394631    1.583848
H       1.369969    1.498310    2.229211
H      -0.339146    1.276243    4.051039
H      -0.763784   -0.395648    3.471378
H       1.617481   -1.144949    3.829783
H       2.060492    0.520098    4.420519
