25

C       0.014281    1.511322    0.602446
C      -0.007879    0.007526    0.319572
O       0.527787   -0.707647    1.435141
C      -1.405807   -0.529094   -0.072754
C      -1.988740    0.222135   -1.282387
C      -1.400606   -2.071213   -0.257597
C      -2.798868   -2.684000   -0.103860
C      -0.755629   -2.525715   -1.577104
O      -0.576156   -3.935158   -1.636780
H       1.001359    1.797442    0.975292
H      -0.199319    2.103264   -0.291224
H      -0.730007    1.775761    1.365126
H       0.697272   -0.204215   -0.493814
H      -0.016457   -0.496660    2.202477
H      -2.060559   -0.324421    0.789900
H      -1.295855    0.218899   -2.131334
H      -2.923953   -0.234598   -1.618442
H      -2.208246    1.265119   -1.040640
H      -0.769376   -2.466021    0.548944
H      -2.753462   -3.764154   -0.263735
H      -3.207315   -2.498648    0.895202
H      -3.505764   -2.273976   -0.834413
H      -1.402900   -2.283435   -2.426919
H       0.201317   -2.007014   -1.740319
H       0.019747   -4.180082   -0.921178
