15

N      -0.002693    1.240592   -0.185280
C      -0.030928   -0.001726    0.004009
O       1.065360   -0.865558    0.049709
C       0.507180   -2.203761    0.294250
C      -0.766770   -2.278014   -0.537603
N      -1.722170   -2.815144    0.558007
C      -2.555483   -1.520917    0.427244
C      -1.136879   -0.974509    0.235696
C      -0.625859   -2.002392    1.292303
H       0.957945    1.567205   -0.308441
H       1.323240   -2.921731    0.339552
H      -0.925463   -2.485397   -1.595222
H      -3.224897   -1.518799   -0.436459
H      -3.087901   -1.250851    1.342503
H      -0.619694   -1.887310    2.375570
