18

O       0.102729    1.230081   -0.634001
C      -0.105547    0.142780    0.258005
C      -1.476742   -0.445159    0.110316
C      -2.796143   -0.008485    0.651332
C      -3.452261   -1.005175   -0.386877
C      -3.111310   -2.097045    0.634836
N      -2.093396   -1.177238    1.259932
C      -2.131443   -0.912263   -1.198228
O      -2.094543    0.082451   -2.207274
H      -0.088618    0.906778   -1.522662
H       0.650293   -0.645666    0.111429
H       0.023585    0.530113    1.272887
H      -3.122821    0.857122    1.212235
H      -4.412721   -0.922692   -0.892165
H      -3.898567   -2.282554    1.369152
H      -2.716098   -3.050920    0.264890
H      -1.775770   -1.830369   -1.677644
H      -2.328061    0.924284   -1.793766
