21

C       0.036845    1.576509    0.034804
C       0.031005    0.074373    0.011400
C      -0.909544   -0.751898    0.842341
C       0.570085   -0.947210    1.034351
C       1.230847   -1.760743   -0.096030
C       0.472010   -2.924673   -0.795396
O      -0.371268   -3.676513    0.049487
C      -0.170921   -1.901974   -1.801061
C       0.655900   -0.759851   -1.140191
H       1.021214    1.980700   -0.229862
H      -0.690863    1.989331   -0.675751
H      -0.223443    1.956268    1.028643
H      -1.386357   -0.196563    1.645639
H      -1.525840   -1.544455    0.435813
H       1.036193   -0.770401    1.997176
H       2.306036   -1.892632    0.028811
H       1.181072   -3.584617   -1.315815
H      -0.776019   -4.373798   -0.476288
H       0.085371   -2.095544   -2.846166
H      -1.256656   -1.804837   -1.721832
H       1.322390   -0.191923   -1.789955
