22

C      -0.436998    1.390084    0.017442
C       0.293625    0.049449   -0.107245
C       0.773711   -0.569932    1.225539
C       1.844321    0.291247    1.908199
O      -0.358115   -0.737818    2.107446
C       1.293210   -1.994655    0.942742
C       1.947841   -2.733596    2.114176
N       1.159463   -2.859193    3.220301
O       3.065484   -3.208601    2.035685
H       0.203229    2.179055    0.424388
H      -0.781986    1.727217   -0.964288
H      -1.322387    1.302184    0.656158
H      -0.375108   -0.674779   -0.586573
H       1.161193    0.161810   -0.768405
H       1.466971    1.297000    2.122001
H       2.157431   -0.160493    2.852683
H       2.727107    0.395721    1.270543
H      -0.584555    0.124905    2.468910
H       0.446912   -2.591755    0.583294
H       2.041512   -1.959278    0.149108
H       0.327361   -2.293165    3.296612
H       1.573643   -3.265303    4.043625
