20

C      -0.413873    1.483890   -0.222091
C       0.113870    0.055350    0.001613
C       0.920447   -0.471742   -1.133066
C       2.212658   -0.892039   -1.266230
N       3.201238   -1.013896   -0.272540
C       2.369730   -1.293270   -2.638106
C       1.169659   -1.090054   -3.243958
C       0.683393   -1.301392   -4.632906
O       0.276312   -0.597833   -2.347387
H       0.411559    2.191450   -0.348367
H      -1.030827    1.526737   -1.123827
H      -1.023716    1.813555    0.625057
H       0.732409    0.024721    0.906411
H      -0.736147   -0.612439    0.200617
H       3.004426   -0.448389    0.543585
H       4.120662   -0.769487   -0.619386
H       3.262152   -1.689025   -3.099117
H      -0.154991   -2.007040   -4.662318
H       0.336121   -0.365376   -5.085964
H       1.488639   -1.702278   -5.252578
