19

C      -0.170866    1.469204    0.077093
C       0.072005   -0.020409    0.062449
O       1.147302   -0.560839    0.109899
O      -1.097886   -0.694268   -0.013935
C      -0.989775   -2.127193   -0.043910
C      -2.400021   -2.689748   -0.128151
C      -2.396993   -4.226598   -0.177030
C      -3.800623   -4.789144   -0.132853
O      -4.265037   -5.551485   -0.939097
H       0.782081    1.990814    0.154924
H      -0.688719    1.772910   -0.837187
H      -0.814954    1.737588    0.919158
H      -0.381188   -2.425888   -0.903926
H      -0.470508   -2.470297    0.857628
H      -2.976068   -2.342059    0.737903
H      -2.895238   -2.288347   -1.019312
H      -1.896975   -4.605773   -1.072911
H      -1.861387   -4.616051    0.701722
H      -4.405997   -4.432788    0.734442
