13

C       0.009894    1.506316   -0.025730
C      -0.021406   -0.004131    0.062054
O      -0.050899   -0.612929    1.110611
C      -0.014034   -0.705259   -1.208423
C      -0.008308   -1.308924   -2.264548
C      -0.001976   -1.970878   -3.438447
C       0.003728   -2.568368   -4.501109
C       0.009938   -3.230347   -5.679309
C       0.015150   -3.822236   -6.734198
H       0.906589    1.834026   -0.562780
H      -0.853835    1.868849   -0.593528
H       0.000736    1.928469    0.980175
H       0.019973   -4.343900   -7.659608
