17

C       0.323966    1.356536    0.215346
N       0.100611   -0.070772    0.090239
C      -0.050015   -0.766697   -1.074724
N      -0.258982   -2.046802   -0.873316
C      -0.243708   -2.194407    0.491940
C      -0.024305   -0.991958    1.115350
C       0.067963   -0.637486    2.570715
C       1.384421   -0.150484    2.990633
C       2.464365    0.257922    3.324746
H       1.217635    1.555744    0.811698
H       0.458572    1.778505   -0.782235
H      -0.531584    1.850922    0.688030
H       0.005518   -0.274180   -2.035089
H      -0.387932   -3.157490    0.959571
H      -0.691130    0.110982    2.840712
H      -0.185079   -1.535684    3.145242
H       3.421565    0.603986    3.627616
