17

C      -0.129912    1.567628    0.050293
C       0.043178    0.067856    0.024608
C      -1.151130   -0.857226    0.328970
O      -0.364362   -1.620089    1.272747
C       0.747604   -0.703651    1.174275
C       1.981610   -1.326196    0.558131
C       1.786724   -1.144644   -0.947779
O       2.440271   -1.597680   -1.838078
O       0.716689   -0.323466   -1.179181
H       0.841144    2.069139   -0.001523
H      -0.727578    1.898907   -0.804288
H      -0.635662    1.879180    0.968545
H      -2.000909   -0.360260    0.813034
H      -1.501167   -1.462145   -0.513108
H       0.918261   -0.165163    2.111542
H       2.907399   -0.822421    0.854565
H       2.080904   -2.386108    0.800222
