13

N       0.197108    1.356795    0.005885
C       0.041315    0.099352    0.002264
N      -1.193996   -0.531400    0.012030
C      -2.461411    0.006175    0.027155
C      -3.674764   -0.631454    0.037658
C      -4.589030    0.447436    0.051125
N      -4.000927    1.617868    0.047984
O      -2.621168    1.329650    0.033085
H       1.188491    1.586078   -0.003091
H       0.842030   -0.650183   -0.008825
H      -1.173672   -1.537516    0.008078
H      -3.873735   -1.689551    0.036276
H      -5.669641    0.410071    0.062411
