15

C      -0.034043    1.549621   -0.011356
C       0.042577    0.032093    0.016523
O       0.816066   -0.465652   -1.099297
C       1.843027   -1.240855   -0.659035
N       2.710846   -1.840774   -1.350427
N       1.789739   -1.270338    0.728626
C       0.752919   -0.522515    1.244696
N       0.388295   -0.284316    2.435690
H       0.967902    1.986486    0.021966
H      -0.537851    1.890265   -0.919241
H      -0.593537    1.891777    0.862552
H      -0.960093   -0.404113   -0.054319
H       2.551983   -1.677744   -2.342125
H       2.475996   -1.778008    1.261710
H       0.987194   -0.742518    3.123235
