21

C       0.303147    1.642704    0.435060
C       1.554711    1.885422   -0.411770
O       2.135439    0.604008   -0.618133
C       1.148939   -0.445039   -0.437401
C      -0.168217    0.297703   -0.127925
C       1.101848   -1.373643   -1.678456
C       1.978121   -2.602406   -1.338699
C       2.103933   -2.523966    0.163523
C       1.644154   -1.374441    0.650913
H       0.572588    1.550037    1.492781
H      -0.439150    2.439665    0.342767
H       1.286045    2.347028   -1.376310
H       2.297140    2.527972    0.073055
H      -0.806283   -0.269763    0.554004
H      -0.729807    0.455171   -1.056057
H       0.069118   -1.695505   -1.847759
H       1.433566   -0.832794   -2.567454
H       1.525034   -3.542151   -1.674838
H       2.967700   -2.551819   -1.811536
H       2.550407   -3.318630    0.752226
H       1.664550   -1.071648    1.692322
