13

C       0.224792    1.415402    0.092348
C      -0.079344   -0.100666   -0.027634
C      -1.531482   -0.346735   -0.003856
N      -2.672470   -0.520356    0.032068
C       0.536104   -0.684415   -1.218602
C       1.083487   -1.139089   -2.192337
C       1.703129   -1.700611   -3.370329
O       2.881312   -1.611859   -3.622592
H       1.305544    1.566185    0.120810
H      -0.186129    1.954929   -0.762819
H      -0.220247    1.810335    1.008032
H       0.344146   -0.605339    0.851939
H       0.999755   -2.231586   -4.041710
