18

N       0.377176    0.137737    0.977979
C      -0.140248    0.089462   -0.283532
O       0.245676    0.800669   -1.190971
C      -1.290640   -0.908540   -0.453480
C      -0.943270   -2.326570   -0.013830
O      -0.695043   -2.444280    1.418810
C      -1.882376   -3.243663    1.617361
C      -2.122686   -3.326173    0.092286
O      -3.335100   -2.825822   -0.407911
H       1.192844    0.710532    1.122904
H       0.146990   -0.585386    1.644297
H      -2.162600   -0.557025    0.107455
H      -1.558363   -0.912318   -1.511814
H      -0.077252   -2.698091   -0.573965
H      -1.658113   -4.177185    2.144887
H      -2.671132   -2.695869    2.147449
H      -1.885266   -4.308424   -0.331949
H      -3.977214   -3.540642   -0.442539
