23

C       0.086726    1.580080   -0.191047
C       0.072544    0.067642   -0.034739
C       1.083161   -0.779535   -0.858041
C       1.316977   -1.674681    0.399132
C       0.669339   -0.558014    1.258625
C       0.583166   -3.023844    0.347976
C       1.640034   -3.924337   -0.295239
O       2.900775   -3.443196    0.168959
C       2.741448   -2.134537    0.715715
H       1.095263    1.981026   -0.036241
H      -0.240131    1.880832   -1.192901
H      -0.578106    2.062796    0.534255
H      -0.944007   -0.309566   -0.191467
H       0.718450   -1.268874   -1.766297
H       1.977467   -0.200812   -1.112508
H       1.426002    0.097205    1.705683
H      -0.024192   -0.871316    2.044669
H       0.357175   -3.366579    1.364803
H      -0.353201   -2.992740   -0.215886
H       1.541903   -4.978810   -0.015536
H       1.595818   -3.861160   -1.393898
H       3.501268   -1.469305    0.286769
H       2.902549   -2.170674    1.804994
