19

C       0.050385    1.497668    0.014816
C      -0.033168   -0.012001    0.000400
O       0.649028   -0.470492   -1.170799
C       0.676156   -1.895895   -1.253097
C      -0.043869   -2.491626   -0.024051
C       0.691133   -1.920234    1.207670
O       0.663505   -0.493474    1.153661
C      -1.441118   -1.925196   -0.009887
C      -1.434208   -0.592855    0.003280
H       1.097905    1.804203    0.010038
H      -0.445929    1.906330   -0.868441
H      -0.432614    1.888439    0.913414
H       0.193670   -2.212367   -2.186639
H       1.724286   -2.223823   -1.272742
H      -0.003429   -3.582656   -0.035096
H       0.219770   -2.254946    2.140541
H       1.739329   -2.248513    1.208315
H      -2.327449   -2.549146   -0.010695
H      -2.307379    0.049014    0.014979
