15

C      -0.053365    1.462067    0.009024
N      -0.016198    0.001339    0.000821
C      -1.231953   -0.691887    0.004233
N      -2.326817   -0.028572    0.014568
C      -1.093670   -2.150295   -0.004812
N       0.028016   -2.777507   -0.014909
N       1.140019   -2.018815   -0.017123
C       1.217554   -0.630956   -0.009628
O       2.288281   -0.062273   -0.012901
H       0.973628    1.819210    0.003026
H      -0.597390    1.820648   -0.867839
H      -0.583546    1.811330    0.898088
H      -3.123472   -0.663987    0.015668
H      -1.994597   -2.754213   -0.002954
H       2.018227   -2.513248   -0.025009
