21

C      -0.174597    1.566748    0.011344
C      -0.023221    0.043314    0.000236
C       0.726582   -0.493150    1.223381
C       0.877972   -2.027653    1.213208
C       1.621813   -2.565421    2.395328
C       2.940660   -2.944477    2.566894
C       3.041159   -3.323533    3.922336
N       1.882002   -3.197599    4.560868
N       1.040920   -2.734429    3.613433
H       0.802814    2.061227    0.030355
H      -0.709945    1.921075   -0.874912
H      -0.730975    1.903179    0.893234
H      -1.015652   -0.424426   -0.051479
H       0.504441   -0.267105   -0.911437
H       1.723715   -0.038795    1.277986
H       0.204619   -0.185679    2.139344
H      -0.117585   -2.488511    1.157643
H       1.405842   -2.333309    0.303484
H       3.712374   -2.947488    1.813719
H       3.907264   -3.687012    4.456137
H       0.079784   -2.566361    3.859390
