21

C      -0.032498    1.576516    0.121029
C       0.036793    0.042847    0.086594
C       0.706063   -0.497920    1.364906
C      -1.393000   -0.519091   -0.029701
O      -2.118098   -0.176703    1.139942
N       0.702467   -0.406440   -1.156047
C       2.060295    0.082382   -1.376696
C       2.610688   -0.490643   -2.608806
N       3.055475   -0.958596   -3.566558
H       0.936983    2.028582    0.351619
H      -0.378392    1.965797   -0.841624
H      -0.737447    1.886035    0.895059
H       0.123901   -0.220354    2.246393
H       0.769748   -1.591871    1.336112
H       1.718097   -0.100174    1.488064
H      -1.857646   -0.105564   -0.935398
H      -1.339369   -1.614281   -0.152547
H      -3.032218   -0.447402    1.019414
H       0.719741   -1.422279   -1.171359
H       2.041695    1.171179   -1.491736
H       2.773720   -0.135868   -0.563411
