16

O      -0.250516    1.435903   -0.010168
N       0.034363    0.060238    0.004808
C      -1.031734   -0.628591    0.018962
C      -2.503640   -0.162281   -0.039788
N      -3.275420   -1.326015   -0.549129
C      -2.493898   -2.314930   -0.400885
N      -2.260473   -3.559144   -0.987702
C      -0.786893   -3.228163   -0.994877
C      -1.087986   -2.132765    0.092418
H       0.628697    1.826284   -0.058679
H      -2.855775    0.179701    0.943006
H      -2.616118    0.682489   -0.725457
H      -2.740874   -3.788587   -1.851105
H      -0.149496   -4.057683   -0.685215
H      -0.446010   -2.807967   -1.945420
H      -0.880101   -2.510672    1.096650
