23

C      -0.283052    1.531824    0.098909
C      -0.066205    0.029088    0.026106
C       1.132645   -0.450984   -0.821383
O       1.690897   -1.199219    0.274345
C       0.668924   -0.723600    1.199871
C       1.290779    0.055005    2.342403
C      -0.244933   -1.878196    1.621707
C      -1.089324   -2.173786    0.370577
C      -1.356574   -0.776593   -0.220938
H       0.648123    2.070788    0.300130
H      -0.683216    1.910412   -0.849183
H      -1.001017    1.794211    0.883892
H       0.894663   -1.091711   -1.680891
H       1.808756    0.348030   -1.156028
H       1.942281    0.850763    1.970953
H       0.521903    0.503249    2.980514
H       1.899280   -0.612384    2.962055
H       0.337757   -2.736275    1.969896
H      -0.886948   -1.550282    2.449447
H      -0.505794   -2.779490   -0.330486
H      -2.008237   -2.723621    0.590704
H      -2.186145   -0.298473    0.315819
H      -1.633639   -0.802721   -1.280432
