16

O      -0.148814    1.348097    0.019419
N       0.027220   -0.048159    0.002203
C      -1.085094   -0.654822    0.008490
C      -1.250555   -2.165676   -0.007995
C      -2.793931   -2.230300    0.075807
C      -3.252306   -1.732328    1.461186
O      -3.010803   -0.316827    1.362459
C      -2.517260   -0.133182    0.034942
O      -3.188185   -1.107403   -0.738681
H       0.759486    1.667217   -0.001030
H      -0.898693   -2.597601   -0.949044
H      -0.738688   -2.664058    0.818858
H      -3.261509   -3.143932   -0.285071
H      -4.319387   -1.908432    1.632913
H      -2.673437   -2.160943    2.286130
H      -2.703864    0.879168   -0.309220
