18

C       0.183707    1.526059    0.046354
C       0.005562    0.043112    0.038060
C      -1.091982   -0.725827   -0.017838
C      -2.552622   -0.417675   -0.092996
O      -2.783049    0.981355   -0.105672
C      -0.678331   -2.138989    0.004231
N      -1.454490   -3.140800   -0.035021
O       0.688898   -2.198271    0.074455
C       1.205458   -0.868206    0.100195
H       0.803927    1.843158   -0.801983
H      -0.773445    2.039690   -0.003080
H       0.713807    1.844151    0.953388
H      -2.959517   -0.905060   -0.992998
H      -3.049557   -0.904001    0.761201
H      -3.732498    1.121679   -0.154305
H      -0.923807   -4.012090   -0.007258
H       1.883424   -0.727660   -0.753171
H       1.792474   -0.726622    1.018340
