22

C      -0.512159    1.621912   -0.364945
C      -0.028151    0.205049    0.001229
C       0.838026    0.281506    1.277407
C      -1.249500   -0.707258    0.141003
C      -1.300622   -1.963286    0.989243
C      -2.107239   -0.748916    1.377811
C       0.928300   -0.269981   -1.123960
N       0.829817   -1.578721   -1.489659
O       1.742074    0.481402   -1.629547
H       0.341294    2.263968   -0.587684
H      -1.157477    1.601486   -1.249402
H      -1.085396    2.051309    0.462313
H       0.270890    0.692653    2.117730
H       1.230074   -0.697311    1.570029
H       1.691158    0.938135    1.091025
H      -1.813561   -0.773318   -0.787034
H      -1.827489   -2.827902    0.598185
H      -0.446233   -2.210615    1.609259
H      -1.783426   -0.197314    2.253009
H      -3.183453   -0.780691    1.250256
H       0.210445   -2.214829   -1.020196
H       1.498722   -1.932115   -2.153876
