29

C      -0.163177    1.556206    0.158522
C      -0.108060    0.029889    0.000817
C      -1.525836   -0.555338   -0.055305
C       0.705702   -0.406569   -1.231639
C       2.199025   -0.058709   -1.186987
C       2.967782   -0.594296   -2.401553
C       4.457134   -0.206900   -2.459931
C       5.267727   -0.811994   -1.304789
C       5.065420   -0.608751   -3.810572
H       0.831527    1.996198    0.274280
H      -0.633989    2.020653   -0.716831
H      -0.751937    1.837779    1.038044
H       0.389780   -0.383338    0.890696
H      -2.069903   -0.181212   -0.931212
H      -1.504534   -1.648372   -0.120690
H      -2.104593   -0.282968    0.833691
H       0.603763   -1.494316   -1.349166
H       0.254460    0.035961   -2.132050
H       2.330583    1.029800   -1.136176
H       2.629322   -0.462163   -0.261348
H       2.882858   -1.690650   -2.433008
H       2.476801   -0.229498   -3.314381
H       4.518706    0.888507   -2.377603
H       6.322467   -0.525408   -1.374591
H       4.902241   -0.484718   -0.327169
H       5.220725   -1.907811   -1.329173
H       4.526481   -0.146919   -4.644663
H       6.115661   -0.306087   -3.880194
H       5.024842   -1.695895   -3.950793
