21

C      -0.078919    1.541535   -0.006789
C       0.063638    0.020741    0.017992
C       0.746879   -0.535293   -1.250244
C       0.902606   -2.054476   -1.213438
O       1.543491   -2.434959   -2.422357
C       1.703120   -2.484126    0.021894
C       1.050384   -1.973539    1.319287
C       0.801998   -0.469961    1.266327
O       1.162049    0.274854    2.148278
H       0.902245    2.022636   -0.059979
H      -0.664982    1.858892   -0.874584
H      -0.569354    1.903807    0.899389
H      -0.938940   -0.434062    0.072975
H       0.173200   -0.249528   -2.137716
H       1.743650   -0.088723   -1.361011
H      -0.103100   -2.509050   -1.157488
H       1.670144   -3.389054   -2.406823
H       1.793496   -3.577209    0.055218
H       2.719653   -2.082849   -0.072111
H       0.078011   -2.468113    1.455401
H       1.659889   -2.194479    2.198224
