17

O      -0.056794    1.876131   -2.081578
C       0.406134    1.241054   -1.171235
C       1.148460    1.861674    0.025280
O       1.514659    1.103717    0.897960
C       1.334541    3.347965   -0.001307
C       1.996326    4.099883    1.190570
C       3.373182    3.503185    0.762208
C       2.684908    3.958016   -0.555330
C       2.280492    5.260694    0.191016
H       0.337993    0.134383   -1.096941
H       0.449135    3.814310   -0.442665
H       1.594427    4.176403    2.200766
H       4.253719    4.080009    1.056251
H       3.522335    2.436627    0.920193
H       3.053397    3.862943   -1.577031
H       1.416567    5.806452   -0.197377
H       3.099332    5.934339    0.455274
