18

C      -0.157028    1.537185   -0.012837
C       0.000803    0.010736    0.004739
C      -1.314467   -0.583633   -0.212288
C      -2.427912   -1.002040   -0.395517
C       1.212045   -0.666854   -0.754536
C       2.157920   -0.123231    0.355080
C       0.909932   -0.676632    1.101856
C       1.008184   -1.910999    0.158536
H       0.782142    2.069896    0.140668
H      -0.576591    1.857777   -0.971310
H      -0.856154    1.848975    0.769164
H      -3.403743   -1.388579   -0.556195
H       1.373946   -0.655420   -1.833747
H       3.079256   -0.691563    0.502009
H       2.359010    0.946248    0.393495
H       0.721235   -0.676520    2.176768
H       0.101492   -2.496194    0.007890
H       1.885397   -2.546713    0.297950
