15

C      -0.528724    1.257736    0.216489
C       0.035366   -0.101793   -0.068244
N      -0.144415   -0.632001   -1.237169
C       0.223537   -1.922881   -1.529456
N       0.217977   -2.972555   -0.781151
C      -0.024621   -2.869279    0.590829
N      -0.790250   -3.597592    1.294507
C       0.855556   -1.850116    1.242104
N       0.836055   -0.608747    0.942732
H      -1.094993    1.236107    1.153790
H       0.284346    1.977626    0.355413
H      -1.171647    1.578282   -0.602551
H       0.469770   -2.076526   -2.580316
H      -1.306130   -4.243195    0.689514
H       1.566995   -2.191905    1.995785
