19

C      -0.026014    1.500225    0.088874
C      -0.024129    0.007981   -0.008011
C       0.008492   -0.741870   -1.116520
C      -0.031562   -2.226845   -0.816550
O       0.957242   -3.011041   -1.476537
C       0.034348   -2.274704    0.714208
O      -0.681352   -3.272422    1.371699
C       1.258479   -1.692136    1.382797
C      -0.015123   -0.863537    1.215617
H       0.831224    1.857681    0.673137
H       0.007984    1.969013   -0.897993
H      -0.925096    1.859040    0.605473
H       0.056895   -0.365675   -2.132489
H      -0.982636   -2.673396   -1.134796
H       1.815909   -2.636976   -1.248388
H      -0.251496   -4.112666    1.173602
H       1.460228   -2.076955    2.376861
H       2.133410   -1.408449    0.804718
H      -0.577148   -0.591189    2.101790
