16

O      -0.114047    0.029174   -0.172952
C       0.000391    1.220096   -0.086231
C       1.338539    1.959686   -0.049570
C       2.587168    1.152853   -0.578530
C       2.694950    2.155372   -1.731616
N       1.405579    2.108021   -2.461484
C       1.532702    2.939477   -1.244495
C       1.502744    2.581770    1.249216
C       1.599633    3.097279    2.331691
H      -0.881186    1.894707   -0.017088
H       3.422249    1.202814    0.119929
H       2.372601    0.119557   -0.853895
H       3.596089    2.500392   -2.221747
H       1.480264    2.735221   -3.261689
H       1.334587    4.003307   -1.241601
H       1.698326    3.548155    3.288242
