12

N       0.215108    1.316886   -0.504486
C       0.123032    0.086064   -0.247212
O       1.174505   -0.804307   -0.186363
C       0.674723   -2.073344    0.124148
O       1.383008   -3.024710    0.235824
C      -0.796009   -1.936283    0.261467
C      -1.121271   -0.654064    0.040611
C      -2.470838   -0.033341    0.067233
O      -3.469037   -0.668389    0.306254
H       1.183977    1.595151   -0.668835
H      -1.448421   -2.762795    0.500397
H      -2.490257    1.050228   -0.148181
