19

C      -0.054616    1.474277    0.002932
C       0.023985   -0.048868    0.029368
C       0.848842   -0.637489   -1.105940
N       2.136320   -0.567963   -0.320239
C       1.167012   -0.603531    0.909101
C       1.094261   -2.135428    0.800901
C       1.508422   -1.900515   -0.645286
C       2.153589   -2.877438   -1.579063
H       0.935611    1.912178   -0.156343
H      -0.712014    1.821518   -0.801436
H      -0.452472    1.860216    0.947691
H      -0.969445   -0.482244    0.203976
H       0.823154   -0.359493   -2.155397
H       1.458878   -0.104767    1.832624
H       1.901762   -2.620911    1.356890
H       0.141927   -2.631176    1.021430
H       1.431689   -3.627392   -1.922228
H       2.554474   -2.364505   -2.458756
H       2.980788   -3.401111   -1.088261
