16

C      -0.056480    1.455339   -0.021362
C      -0.017763   -0.046984    0.033430
N      -0.008512   -0.645813   -1.106825
O       0.018016   -2.027467   -1.130564
C       0.037110   -2.815364    0.024872
N       0.062717   -4.081951   -0.081492
C       0.033404   -2.109866    1.277966
C       0.001070   -0.757543    1.312926
N      -0.080289   -0.012939    2.471388
H       0.839952    1.895699    0.433536
H      -0.103725    1.777453   -1.061898
H      -0.928677    1.845821    0.514284
H       0.064288   -4.358075   -1.063924
H       0.052341   -2.718439    2.174007
H       0.131795   -0.502566    3.327715
H       0.293295    0.922282    2.444794
