13

O      -0.058703    1.418154    0.068271
C       0.030767    0.005700   -0.000688
C       0.702182   -0.465107   -1.216080
C       1.271899   -0.825289   -2.210102
C       0.701991   -0.557028    1.229679
N       0.241790   -1.432400    2.069721
C       1.276314   -1.517166    2.971404
N       2.301289   -0.751212    2.720089
O       1.920147   -0.100207    1.538507
H       0.829805    1.776675   -0.044603
H      -0.998816   -0.363796    0.020579
H       1.768639   -1.148859   -3.092003
H       1.259977   -2.163240    3.836916
