23

O       0.101674    1.377113   -0.261033
C       0.066881   -0.022582   -0.038575
C       0.609307   -0.475397    1.329991
C      -0.004097   -1.873236    1.539570
C      -0.452616   -2.248891    2.969219
C      -1.757816   -3.038462    2.764450
C      -2.458007   -2.271795    1.628591
C      -1.315092   -1.893718    0.661211
C      -1.385111   -0.512559   -0.017706
H       1.023295    1.651873   -0.289556
H       0.615477   -0.549234   -0.838435
H       1.703441   -0.466790    1.381458
H       0.238931    0.230496    2.084177
H       0.688937   -2.635969    1.169248
H       0.306428   -2.808973    3.523446
H      -0.664466   -1.339206    3.545404
H      -1.531187   -4.063212    2.442934
H      -2.363793   -3.111167    3.672788
H      -3.253808   -2.848081    1.147445
H      -2.920303   -1.362702    2.033885
H      -1.222528   -2.672158   -0.103518
H      -1.964524    0.193999    0.589688
H      -1.836418   -0.532341   -1.013246
