18

C       0.190310    1.433585   -0.080930
N       0.044409    0.001237   -0.066598
C      -1.133972   -0.875777   -0.132151
C      -0.163361   -2.080114   -0.094023
C      -0.080149   -2.953823   -1.334454
C       1.011291   -4.000448   -1.296095
O      -0.804575   -2.781343   -2.287776
C       0.969257   -1.000850   -0.032371
O       2.172583   -1.017756    0.006462
H       1.258319    1.660546   -0.046540
H      -0.235641    1.868018   -0.993157
H      -0.298105    1.895154    0.785688
H      -1.802509   -0.782758    0.729947
H      -1.697338   -0.797990   -1.065417
H      -0.193519   -2.687981    0.813952
H       0.799567   -4.737467   -0.512633
H       1.085398   -4.503247   -2.260814
H       1.961941   -3.520940   -1.034787
