21

C      -0.064148    1.562527    0.006259
C       0.046285    0.036532   -0.048152
C       0.681117   -0.553959    1.216269
C       0.771097   -2.097641    1.212807
C       1.670954   -2.598763    2.366654
C       1.807171   -4.050084    2.397887
C       1.894681   -5.248684    2.396072
C      -0.628487   -2.670161    1.352807
O      -1.308146   -3.071617    0.445299
H       0.919532    2.029432    0.129712
H      -0.508020    1.959682   -0.911481
H      -0.690536    1.885602    0.845247
H      -0.945657   -0.402560   -0.203467
H       0.644880   -0.259759   -0.918831
H       1.694494   -0.150039    1.340278
H       0.117594   -0.227049    2.102606
H       1.173792   -2.440561    0.254439
H       2.659124   -2.132839    2.272159
H       1.260849   -2.246945    3.323575
H       1.976181   -6.307442    2.401658
H      -1.019843   -2.651817    2.399233
