21

O       0.332379    0.549545    0.881777
C      -0.123371    0.223498   -0.431775
C      -1.475673   -0.440056   -0.356174
O      -2.434210    0.377794    0.259132
C      -1.990599   -1.319194   -1.450397
C      -1.593314   -1.937170   -0.118265
C      -0.413410   -2.850454    0.003827
C       0.059732   -3.311632    1.367604
C      -0.601376   -4.286643    0.423641
H       0.487337   -0.285564    1.338421
H      -0.208998    1.178513   -0.959961
H       0.602693   -0.399556   -0.970072
H      -1.995340    0.743060    1.038851
H      -3.046895   -1.242683   -1.681823
H      -1.349429   -1.501665   -2.307819
H      -2.430556   -2.195470    0.525750
H       0.368997   -2.684935   -0.731817
H       1.125401   -3.409826    1.545364
H      -0.509012   -2.990270    2.234628
H      -1.608749   -4.613062    0.659955
H       0.013933   -5.047284   -0.043930
