19

O       0.013554    1.381402   -0.227825
C       0.040412   -0.012929    0.031101
C       0.565917   -0.409137    1.423409
C      -0.056663   -1.798155    1.689090
O      -0.148976   -2.159067    3.047086
C      -1.442410   -1.707626    1.025430
O      -2.338299   -0.952675    1.880789
C      -2.394214    0.138017    0.923091
C      -1.392810   -0.564478   -0.014609
H       0.912383    1.717532   -0.157438
H       0.632949   -0.529329   -0.741690
H       1.657205   -0.415033    1.491603
H       0.187755    0.302211    2.166457
H       0.535220   -2.579019    1.196134
H      -0.892312   -1.646603    3.395192
H      -1.871987   -2.676976    0.755853
H      -3.405514    0.253078    0.518263
H      -2.061819    1.089378    1.348739
H      -1.749711   -0.755812   -1.025786
