20

C      -0.591933    1.495228    0.004436
C       0.021224    0.114711   -0.056244
O       1.265371    0.046854   -0.800664
C       1.846194   -0.835718    0.178936
C       0.711243   -0.535246    1.185442
N       1.048080    0.308842    2.308915
C       2.025654    1.389243    2.192463
C       0.501186    0.083623    3.539540
O       0.747262    0.733511    4.533087
H       0.069357    2.225587    0.473753
H      -0.819443    1.839865   -1.009151
H      -1.529525    1.463555    0.569225
H      -0.705610   -0.589769   -0.490037
H       1.861999   -1.878924   -0.163230
H       2.859529   -0.535798    0.462083
H       0.188230   -1.409797    1.576971
H       2.173603    1.639080    1.142224
H       1.661525    2.264295    2.734364
H       2.987402    1.102389    2.632809
H      -0.205505   -0.769868    3.533776
