18

C       0.014817   -1.277088   -0.014779
C      -0.005143   -0.074260    0.003962
C      -0.050098    1.372351   -0.014566
C      -0.123175    2.074411    1.384028
C       1.409644    1.751583    1.503371
C       1.354095    2.087093   -0.016213
N       1.118995    3.560703    0.057761
C      -0.207248    4.047502   -0.360608
C      -0.014342    3.563735    1.031426
H       0.032874   -2.338581   -0.027061
H      -0.776841    1.683898   -0.765835
H      -0.852865    1.771211    2.133131
H       2.017261    2.417565    2.119100
H       1.618105    0.703998    1.717636
H       2.133064    1.810795   -0.724595
H      -0.223009    5.122837   -0.517461
H      -0.805059    3.501017   -1.080419
H       0.037072    4.275118    1.851938
