22

C      -0.173250    1.388041   -0.591340
C      -0.094971    0.020537    0.092636
C      -1.431523   -0.728131    0.089105
C      -1.342300   -2.097918    0.773162
N      -2.603132   -2.823437    0.783220
C      -2.926165   -3.729233   -0.186753
O      -2.182117   -4.031070   -1.097356
C      -4.291143   -4.400897    0.018081
O      -4.877753   -4.617915   -1.242673
H       0.794954    1.897999   -0.575847
H      -0.481286    1.288588   -1.637812
H      -0.900721    2.039063   -0.093651
H       0.664252   -0.595957   -0.405880
H       0.249444    0.147574    1.128008
H      -2.197149   -0.118778    0.589583
H      -1.774685   -0.877776   -0.941502
H      -0.625210   -2.731071    0.244611
H      -0.995180   -1.984605    1.807398
H      -3.321159   -2.524036    1.422646
H      -4.100440   -5.343885    0.554476
H      -4.932514   -3.781401    0.667814
H      -5.548223   -5.299707   -1.148609
