10

O      -0.466144    0.489185    0.847519
C       0.000444    1.148734   -0.049318
C       1.228281    1.902960    0.062645
C       2.253226    2.542603    0.129141
C       3.465925    3.331625    0.224637
O       3.445751    4.510293    0.511290
C       4.679984    2.596751   -0.050202
C       5.690173    1.983986   -0.278619
H      -0.485040    1.225724   -1.042076
H       6.587838    1.449597   -0.478128
