21

C       0.137953    1.557839   -0.012895
C       0.073216    0.103021   -0.009433
C       0.031122   -1.101854   -0.010555
C      -0.040155   -2.552313   -0.001107
C       0.369383   -3.289554    1.292104
C      -0.556419   -2.931709    2.415597
C      -1.010059   -3.936872    1.391635
C      -1.466513   -3.255445    0.094254
C      -2.728136   -2.405329    0.101680
H       0.793156    1.929498    0.783063
H       0.526040    1.938882   -0.964265
H      -0.851737    2.002503    0.141128
H       0.501434   -2.952128   -0.863748
H       1.347305   -3.723578    1.460316
H      -0.292418   -3.350715    3.381359
H      -0.993464   -1.938466    2.467896
H      -1.258192   -4.954055    1.671476
H      -1.530822   -3.993081   -0.711486
H      -2.705465   -1.649334    0.891173
H      -2.852735   -1.881017   -0.851507
H      -3.611572   -3.033925    0.259928
