19

C       0.476881    1.246681    0.080244
C      -0.457773    0.097876   -0.308307
N      -0.002009   -0.652764   -1.464769
C       0.691045   -1.818387   -1.341818
O       0.890098   -2.418616   -0.307671
O       1.119922   -2.229231   -2.563733
C       1.841153   -3.471846   -2.569304
C       2.241277   -3.760605   -4.003860
H       1.470173    0.864652    0.332790
H       0.584891    1.966288   -0.738689
H       0.083011    1.783678    0.949252
H      -0.536870   -0.619800    0.511070
H      -1.464609    0.480297   -0.512885
H      -0.005005   -0.218499   -2.373274
H       2.712970   -3.384859   -1.912967
H       1.202332   -4.260467   -2.158852
H       1.359812   -3.845547   -4.645905
H       2.878904   -2.964777   -4.399612
H       2.795512   -4.702618   -4.052757
