12

N      -0.180209    1.394876    0.139395
C      -0.054575    0.141639   -0.016958
C       1.234099   -0.584481   -0.140757
N       1.609139   -1.571557   -0.861575
O       0.759493   -2.108376   -1.843147
C      -0.588616   -1.970322   -1.926706
N      -1.469273   -1.494860   -1.156054
C      -1.262114   -0.779893    0.020883
O      -1.977097   -0.860109    0.982461
H       0.727767    1.868826    0.117218
H       2.032731   -0.249014    0.521953
H      -0.879470   -2.443085   -2.864229
