19

O      -0.123792    1.447308   -0.029670
C      -0.087088    0.048220    0.049195
C       0.179535   -0.672268    1.370646
C      -0.731279   -1.807252    0.962020
C      -1.179738   -0.875707    2.064059
C      -2.230995   -0.265498    1.163023
C      -3.707358   -0.396992    1.333180
C      -3.064326    0.981388    1.299368
C      -1.410481   -0.777844   -0.029498
H      -0.751891    1.754028    0.633497
H       0.619439   -0.286229   -0.715578
H       1.106796   -0.732410    1.926625
H      -0.578975   -2.875048    0.930691
H      -1.244086   -1.079401    3.125506
H      -4.303663   -0.698913    0.477852
H      -4.086984   -0.751526    2.286321
H      -3.021877    1.538962    2.230321
H      -3.235387    1.593594    0.419337
H      -1.883626   -0.997259   -0.984815
