21

C      -0.115173    1.519453   -0.005307
C      -0.033894   -0.007627   -0.044437
C      -1.394772   -0.617851   -0.353512
C       1.173030   -0.493801   -0.896875
N       1.994211   -0.550828    0.335218
C       0.781990   -0.598301    1.192103
C       0.881361    0.185171    2.500335
C       0.377197   -1.984770    1.490544
N       0.104281   -3.085156    1.722548
H       0.866595    1.972965    0.151805
H      -0.505675    1.887204   -0.960331
H      -0.789775    1.868058    0.783581
H      -1.751510   -0.262048   -1.326442
H      -1.360771   -1.709395   -0.383137
H      -2.138448   -0.324227    0.395952
H       0.984877   -1.470428   -1.361941
H       1.555957    0.197184   -1.654986
H       2.616228   -1.348232    0.420281
H       1.226681    1.200721    2.304453
H      -0.087030    0.222900    3.008797
H       1.596389   -0.296429    3.174199
