17

O      -0.042609    1.451415   -0.128176
C       0.017953    0.053928    0.047239
C       0.259191   -0.527623    1.486339
C      -1.065761   -1.275705    1.387451
C      -2.195323   -0.279005    1.162670
C      -1.347477   -0.617324   -0.007737
O      -1.841950   -1.228260   -1.138955
C      -1.301018   -2.671837    1.760368
O      -0.486636   -3.376421    2.311985
H       0.855459    1.797804   -0.125551
H       0.688236   -0.419447   -0.681417
H       1.121784   -1.191385    1.557814
H       0.306538    0.229268    2.274423
H      -3.187088   -0.722358    1.134245
H      -2.137074    0.692331    1.645574
H      -2.576784   -0.704556   -1.476059
H      -2.304600   -3.062047    1.476204
