21

O      -0.002885    1.288137    0.477046
C      -0.042548   -0.099374    0.136679
C      -1.493824   -0.568485   -0.075247
O      -2.292085   -0.085027    0.997618
C      -2.074859    0.014628   -1.382129
O      -1.352589   -0.363339   -2.546684
C      -1.550344   -2.086838   -0.092957
C      -1.613101   -2.872271    1.190823
C      -2.816570   -2.816146    0.282902
H      -0.057261    1.799030   -0.336593
H       0.558318   -0.313352   -0.754096
H       0.385298   -0.630530    0.991270
H      -1.892623    0.760146    1.248048
H      -3.134773   -0.263385   -1.443841
H      -2.031518    1.109324   -1.336860
H      -1.587296   -1.272096   -2.756309
H      -0.956568   -2.525680   -0.890691
H      -1.051494   -3.797578    1.254921
H      -1.670668   -2.302704    2.110467
H      -3.653321   -2.214031    0.616823
H      -3.086355   -3.703695   -0.278947
