17

C      -0.000566    1.489872    0.082956
C       0.019660   -0.012185   -0.012185
C      -0.113378   -0.689008   -1.216357
C      -0.083996   -2.086211   -1.230785
C       0.080209   -2.790561   -0.046088
N       0.183713   -4.178698    0.035661
C       0.200468   -2.001828    1.118288
O       0.347891   -2.667287    2.295800
N       0.172807   -0.688523    1.144790
H       0.937296    1.865845    0.506325
H      -0.143684    1.949527   -0.898161
H      -0.805990    1.827286    0.744259
H      -0.241247   -0.138049   -2.141155
H      -0.186064   -2.627855   -2.166762
H      -0.307541   -4.681333   -0.689442
H      -0.020096   -4.543469    0.955178
H       0.399391   -1.984182    2.977918
