15

C       0.000623    1.512388    0.108754
C       0.003411    0.026205   -0.039444
C      -0.002511   -0.789456   -1.160658
C      -0.017919   -0.377207   -2.601210
C       0.025071   -2.102228   -0.633629
N       0.045518   -2.118765    0.694972
N       0.035760   -0.814109    1.029667
H       1.013721    1.919184    0.215752
H      -0.447229    1.982689   -0.770538
H      -0.576246    1.829015    0.984354
H       0.990027   -0.190806   -2.992350
H      -0.466824   -1.155849   -3.225205
H      -0.596768    0.539736   -2.755936
H       0.023109   -3.034929   -1.180644
H       0.031161   -0.561207    2.003510
