12

N       0.083327    1.381950    0.168408
C       0.006103   -0.000501    0.043279
C      -1.063824   -0.841233    0.017667
O      -0.641157   -2.126613   -0.042514
N       0.727077   -2.165620   -0.055439
C       1.121526   -0.903253   -0.005791
C       2.486351   -0.528899   -0.013196
C       3.623309   -0.134184   -0.025112
H       0.969971    1.752301   -0.148036
H      -0.685243    1.883515   -0.253818
H      -2.131001   -0.693178    0.036325
H       4.636321    0.185370   -0.029186
