17

C       0.457751   -1.131503   -0.055458
C       0.243107    0.052039   -0.043849
C      -0.033251    1.474504   -0.030767
C      -0.243840    2.265512    1.328006
C       0.991962    2.950285    2.041349
C       2.463675    2.588058    1.763861
C       2.318559    2.096903    0.327529
C       1.127407    2.490282   -0.166095
C       0.428310    3.486281    0.776400
H       0.645617   -2.176624   -0.060165
H      -0.905508    1.694028   -0.659453
H      -1.184889    2.231000    1.871489
H       0.713828    3.393455    2.996533
H       3.110464    3.457533    1.949359
H       2.854950    1.763150    2.371237
H       2.782221    1.163241    0.025580
H       0.028652    4.463322    0.539799
