22

C       0.274976    1.485029   -0.342571
C      -0.067954    0.037559    0.024059
O       0.291120   -0.852561   -1.034375
C       1.622322   -1.296781   -0.800115
C       1.721433   -1.489001    0.717966
C       0.678422   -0.504892    1.260870
C       0.878362    0.287070    2.507083
N       0.017974   -0.891942    2.510151
C      -1.408875   -0.662944    2.673116
H       1.356793    1.633993   -0.418374
H      -0.176347    1.735420   -1.306896
H      -0.107077    2.183916    0.407597
H      -1.152845   -0.053783    0.138911
H       1.769260   -2.216542   -1.371801
H       2.353391   -0.554527   -1.157225
H       1.434392   -2.502829    1.009555
H       2.726235   -1.298120    1.103978
H       1.808270    0.206081    3.066257
H       0.397563    1.262946    2.575677
H      -1.767309    0.294444    2.259710
H      -1.968781   -1.473363    2.195038
H      -1.644019   -0.673758    3.742160
