20

C      -0.201434    1.556252    0.056359
C       0.043090    0.045284    0.028867
C       0.683511   -0.418071   -1.280398
N       0.811148   -1.882953   -1.301498
C       1.988993   -2.532536   -0.577582
C       1.735472   -3.753773   -1.499665
C       1.600301   -2.523651   -2.434468
C       2.857072   -1.947265   -1.724757
O       3.801356   -1.248269   -1.916941
H       0.733997    2.113700   -0.062456
H      -0.874667    1.863675   -0.751525
H      -0.655129    1.865314    1.002565
H       0.692312   -0.236869    0.867537
H      -0.898824   -0.496473    0.170641
H       0.033116   -0.151551   -2.123006
H       1.640341    0.107125   -1.435307
H       2.098473   -2.500589    0.504485
H       2.566188   -4.438165   -1.675644
H       0.785717   -4.252592   -1.303283
H       1.265923   -2.475696   -3.469374
