16

N       0.138206    1.288582    0.474103
C       0.001306   -0.008448    0.075482
C      -1.205427   -0.627867    0.022114
C      -1.468446   -2.009349   -0.323340
O      -2.577140   -2.430599   -0.608211
N      -0.410582   -2.957495   -0.273722
C       0.804446   -2.877496    0.389497
N       1.598118   -1.890478    0.482146
C       1.288843   -0.705388   -0.309212
H       0.983159    1.786620    0.253274
H      -0.684870    1.851975    0.613344
H      -2.110893   -0.058650    0.205496
H      -0.795903   -3.887556   -0.378968
H       1.094475   -3.813814    0.869856
H       1.222597   -0.978609   -1.373379
H       2.125350   -0.007397   -0.203374
