17

N      -0.061496    1.388724   -0.144486
C       0.050441   -0.024058   -0.053040
C       0.669678   -0.969236   -1.120202
C       0.083961   -1.916981   -0.033480
C       0.699395   -0.974061    1.034435
C      -1.177788   -0.983970   -0.020507
O      -1.954756   -0.879057    1.147900
C      -2.055640   -1.031600   -1.196638
N      -2.793131   -1.108199   -2.083736
H      -0.523972    1.767739    0.676372
H       0.852567    1.824407   -0.213266
H       0.205868   -0.977503   -2.108303
H       1.759245   -0.954969   -1.185494
H       0.076905   -3.004905   -0.039943
H       1.790804   -0.959414    1.074873
H       0.247293   -0.979527    2.024348
H      -2.636204   -1.559773    1.131829
