19

C       0.375400    1.496187   -0.270696
C       0.337924   -0.007597   -0.069351
O       0.536578   -0.632652   -1.337545
C       0.522217   -2.042375   -1.302609
C       0.848039   -2.563297   -2.744969
O       0.639175   -1.650949   -3.780266
C       2.319690   -2.873172   -2.309803
C       1.896831   -2.617798   -0.857658
O       2.405041   -2.791846    0.212816
H       1.344787    1.808794   -0.669061
H      -0.404261    1.812921   -0.969333
H       0.213799    2.006263    0.683320
H       1.117245   -0.334037    0.631417
H      -0.632574   -0.327099    0.341092
H      -0.374394   -2.427123   -0.796800
H       0.296368   -3.479150   -2.975392
H       0.651384   -0.774172   -3.372685
H       2.733066   -3.859295   -2.533453
H       3.017161   -2.107466   -2.667435
