23

C      -0.032192    1.613649   -0.101489
C       0.014589    0.084121   -0.062562
C      -1.383616   -0.549106    0.086068
C      -1.374549   -2.056964    0.116050
C      -1.541997   -2.770433    1.230858
C      -1.558630   -4.276345    1.232687
C      -1.764525   -4.794989   -0.191359
O      -0.894834   -4.140265   -1.098868
C      -1.172100   -2.759245   -1.208604
H       0.971018    2.040617   -0.196550
H      -0.628105    1.971057   -0.948801
H      -0.482025    2.019372    0.811634
H       0.497634   -0.288688   -0.973929
H       0.641803   -0.249599    0.772752
H      -1.847084   -0.171987    1.005472
H      -2.016399   -0.200476   -0.743865
H      -1.680010   -2.260841    2.182525
H      -0.619372   -4.670477    1.645288
H      -2.360361   -4.651604    1.881856
H      -1.540654   -5.862671   -0.268946
H      -2.814591   -4.644288   -0.493791
H      -2.064170   -2.592492   -1.843417
H      -0.321934   -2.326537   -1.748567
