16

C      -0.011874    1.565725   -0.001265
C       1.552226    1.811917   -0.097103
C       1.904359    0.344857   -0.071345
O       2.997923   -0.607276   -0.103405
C       1.736628   -1.420899   -0.007000
C       1.045630   -0.434876    0.963939
C      -0.122066    0.002269    0.053549
C       0.937534   -0.494480   -0.953377
H      -0.435937    2.031694    0.892916
H      -0.535293    1.976916   -0.869292
H       1.842217    2.320434   -1.019948
H       1.942234    2.375593    0.754066
H       1.872020   -2.500806    0.018940
H       1.158599   -0.373446    2.045942
H      -1.124270   -0.420607    0.123197
H       0.928079   -0.500554   -2.042937
