17

O       0.149030    1.296213    0.261338
C       0.047714   -0.050171   -0.150374
C      -1.403932   -0.530710   -0.088907
C      -1.752731   -2.046432   -0.198169
C      -2.653995   -1.947359    1.089032
C      -2.577885   -2.960518    2.113887
C      -2.480898   -3.795989    2.972707
C      -1.976930   -0.567802    1.328865
O      -1.798343    0.116821    2.295314
H      -0.213944    1.343717    1.155543
H       0.426994   -0.100749   -1.176407
H       0.676059   -0.715152    0.464834
H      -2.024597    0.091018   -0.743668
H      -2.262754   -2.369634   -1.104941
H      -0.884041   -2.683876   -0.021420
H      -3.696034   -1.763370    0.796372
H      -2.402478   -4.532511    3.733693
