21

C       0.180506    1.535506    0.053200
C      -0.017045    0.022096    0.016055
C      -1.480202   -0.402024   -0.000726
O      -2.382829    0.400418    0.075405
C      -1.747978   -1.899781   -0.123024
C      -3.228018   -2.263667   -0.008715
C      -3.482659   -3.768900   -0.189571
C      -4.958680   -4.097135   -0.162715
O      -5.473179   -4.913482    0.556597
H       1.244497    1.785872    0.082499
H      -0.262207    2.009210   -0.826812
H      -0.303443    1.968861    0.931745
H       0.477507   -0.424795   -0.857326
H       0.455931   -0.459209    0.883808
H      -1.338707   -2.233975   -1.087738
H      -1.151333   -2.424928    0.635190
H      -3.605679   -1.937211    0.966214
H      -3.794226   -1.693195   -0.752937
H      -3.096262   -4.086236   -1.170155
H      -2.980287   -4.366130    0.577638
H      -5.569583   -3.504041   -0.884294
