19

O       0.605749    0.080129    1.438200
C       0.122812   -0.084597    0.119093
C      -1.326117   -0.622884    0.061536
C      -2.139247   -0.130762    1.261201
O      -1.936595    1.265020    1.520302
C      -2.070365   -0.648275   -1.321281
C      -1.154594   -1.791710   -1.815328
C      -1.624298   -2.097211   -0.372188
O      -2.989737   -1.676920   -0.785070
H       0.081675    0.796543    1.819991
H       0.166312    0.865488   -0.436952
H       0.819745   -0.768898   -0.369466
H      -3.197436   -0.364139    1.125508
H      -1.785664   -0.637211    2.162986
H      -2.335354    1.766164    0.802100
H      -2.514638    0.172833   -1.888379
H      -1.609812   -2.429537   -2.573060
H      -0.100746   -1.592490   -2.011382
H      -1.540039   -3.018338    0.206024
