16

O      -0.297718    1.507567   -0.310799
C       0.038628    0.151478   -0.039965
C      -1.180702   -0.771501    0.214911
C      -1.379553   -1.597829   -1.079875
C      -0.074186   -1.421798   -1.807821
C       0.725255   -0.507179   -1.235085
C       2.005966   -0.097622   -1.676478
C       3.103906    0.268715   -2.011713
H      -0.722112    1.537362   -1.175581
H       0.695286    0.207277    0.832692
H      -0.959803   -1.443346    1.049482
H      -2.052648   -0.175966    0.494546
H      -1.593256   -2.652195   -0.870172
H      -2.219837   -1.240658   -1.691695
H       0.176757   -1.972069   -2.707830
H       4.068420    0.590669   -2.317018
