19

O      -0.103275    1.333540   -0.219422
C      -0.072865   -0.057576   -0.079445
C      -0.420110   -0.721074    1.252924
C      -0.842403    0.134901    2.381675
C      -1.900339    0.950771    2.318603
C      -2.780279    1.070948    1.104065
C      -2.690128   -0.101504    0.094426
O      -3.058455    0.334363   -1.210013
C      -1.355039   -0.827591    0.057172
H      -0.135686    1.718598    0.666715
H       0.731840   -0.505802   -0.656728
H       0.171324   -1.592812    1.513229
H      -0.235385    0.100987    3.282163
H      -2.147879    1.577685    3.171565
H      -3.825442    1.198392    1.407680
H      -2.523838    1.990304    0.560924
H      -3.453261   -0.839441    0.364704
H      -2.345109    0.911611   -1.508855
H      -1.396230   -1.787516   -0.448978
