13

O      -0.064496    0.062089    0.060637
C      -0.101971    1.246219    0.057608
C      -1.151461    2.341594   -0.091960
C      -0.945949    3.123674    1.239423
C       0.463218    3.429829    0.703021
C       1.409065    4.363193    1.229835
N       2.134366    5.144655    1.675976
C       0.061373    3.152887   -0.691050
N       1.020086    2.205706   -0.006307
H      -2.135521    2.165635   -0.514519
H      -1.542502    4.036692    1.277254
H      -1.037733    2.565321    2.174742
H       0.282414    3.611845   -1.642799
