18

C      -0.131729    1.459713    0.027352
C       0.048392   -0.053446    0.024601
C       0.873221   -0.566595   -1.157967
C       2.150590   -0.508519   -0.373785
C       1.228091   -0.559534    0.912662
C       1.170197   -2.102103    0.777280
C       1.557145   -1.878096   -0.688750
C       2.034488   -2.841025   -1.622147
N       2.421166   -3.634962   -2.371306
H       0.822930    1.972549   -0.132751
H      -0.819236    1.777590   -0.763460
H      -0.543385    1.799275    0.983593
H      -0.912034   -0.552119    0.204590
H       0.731419   -0.387219   -2.216335
H       3.133689   -0.119850   -0.593516
H       1.440355   -0.089771    1.870365
H       1.980087   -2.597882    1.317151
H       0.217253   -2.595294    0.994960
