15

C       0.088419    1.432824    0.003239
N      -0.033737   -0.009717    0.074714
C      -1.232489   -0.631881    0.037069
C      -2.487617   -0.130695    0.053525
C      -3.437574   -1.239077    0.030882
O      -4.636432   -1.251445    0.034062
O      -2.709624   -2.431211   -0.004003
C      -1.326222   -2.140402    0.001740
H       1.139772    1.709797    0.097330
H      -0.299680    1.833908   -0.942643
H      -0.464574    1.899937    0.825292
H       0.789234   -0.558446   -0.108678
H      -2.805663    0.898831    0.075867
H      -0.854026   -2.558916   -0.897772
H      -0.851540   -2.597047    0.880368
