16

O      -0.165001    0.129666    0.362577
C      -0.038791    1.268386    0.054178
O      -0.992098    2.113497   -0.458895
C      -0.019400    3.197340   -0.646796
C      -0.252731    4.438316    0.226104
C       0.588868    4.228183    1.477636
N       0.219513    3.024390    2.237784
C       1.395197    2.978593    1.344285
C       1.080681    2.323089    0.009674
H       0.068355    3.414327   -1.712676
H       0.089316    5.331409   -0.307697
H      -1.316044    4.562953    0.450291
H       0.966912    5.091882    2.016225
H       0.522487    3.109674    3.204392
H       2.385253    2.877770    1.773791
H       1.961015    2.056463   -0.574708
