23

C      -0.535388    1.399181    0.009016
C       0.059876   -0.007199   -0.084335
O       0.967933   -0.117205   -1.172828
C       0.753692   -0.439278    1.220999
C       1.128027   -1.920313    1.213474
O       1.900617    0.413813    1.318960
C       2.518392    0.467278    2.567345
C       3.730721   -0.383526    2.853667
C       3.868020    1.106712    2.610752
H       0.237419    2.122410    0.285397
H      -0.957361    1.688327   -0.956800
H      -1.329716    1.442555    0.762505
H      -0.740499   -0.726322   -0.295662
H       1.762338    0.356938   -0.896930
H       0.081769   -0.230149    2.068765
H       0.222162   -2.533691    1.165143
H       1.741947   -2.143853    0.337300
H       1.676248   -2.198154    2.116392
H       1.829976    0.664583    3.389721
H       3.874018   -0.768363    3.857762
H       4.065864   -1.041321    2.060356
H       4.285696    1.414105    1.658627
H       4.107004    1.758757    3.443064
