16

O      -0.052191    1.384012   -0.067557
C       0.057261   -0.025553   -0.159123
C       0.812140   -0.430824   -1.365307
N       1.431697   -0.738008   -2.291173
C       0.706015   -0.627796    1.087385
C      -0.046370   -0.715698    2.444630
C      -0.911536   -1.887546    1.921223
C       0.562142   -2.118994    1.508168
O       0.966225   -1.708957    2.873636
H       0.835673    1.752549    0.011846
H      -0.969405   -0.381503   -0.279840
H       1.732946   -0.269153    1.203457
H      -0.298803    0.082805    3.141098
H      -1.270796   -2.561958    2.698213
H      -1.664588   -1.701849    1.152874
H       1.040537   -3.000292    1.082489
