18

C      -0.156402    1.346750    0.143158
N      -0.046012   -0.073065   -0.111334
C       0.668417   -0.571711   -1.153842
O       1.282078    0.073649   -1.974419
O       0.596116   -1.931960   -1.146848
C       1.313359   -2.579929   -2.202960
C       1.091045   -4.083056   -2.019250
C       1.778211   -4.859968   -3.042225
C       2.354439   -5.476970   -3.897094
H       0.415799    1.862853   -0.628580
H      -1.198307    1.683668    0.096399
H       0.252899    1.612236    1.124618
H      -0.505965   -0.734231    0.491153
H       0.940971   -2.239700   -3.173133
H       2.375683   -2.326788   -2.145297
H       1.440863   -4.376793   -1.022221
H       0.014537   -4.290739   -2.045597
H       2.859760   -6.032030   -4.648040
