16

C      -0.113562    1.559808   -0.004442
C       1.423160    1.513895   -0.220149
N       1.424140    0.158755    0.367470
C      -0.040897    0.038124    0.287510
C       2.289704   -0.831391   -0.019529
C       2.178704   -2.191642   -0.032870
O       3.345596   -2.695412   -0.474499
N       4.185059   -1.610224   -0.742755
N       3.559603   -0.542322   -0.474851
H      -0.411558    2.150745    0.862580
H      -0.711858    1.855877   -0.865490
H       1.723976    1.524342   -1.275142
H       2.031062    2.239078    0.326966
H      -0.516690   -0.321664    1.205514
H      -0.372671   -0.588117   -0.553951
H       1.405282   -2.890600    0.230816
