18

C      -0.069356    1.368639    0.129398
N       0.075963   -0.057487   -0.025695
C      -0.108477   -0.798562   -1.157936
C       0.006756   -2.115895   -0.785120
C       0.039432   -3.550417   -1.223518
C      -0.041617   -4.279799    0.159747
N       0.497717   -3.313595    1.150127
C       0.267730   -2.054510    0.594740
N       0.306267   -0.828933    1.086195
H       0.769928    1.764767    0.706924
H      -0.075320    1.834511   -0.858273
H      -1.000389    1.622586    0.649455
H      -0.307464   -0.317689   -2.103261
H      -0.778707   -3.858933   -1.880405
H       0.978244   -3.799708   -1.734757
H      -1.091033   -4.526287    0.378695
H       0.535238   -5.208293    0.175930
H       0.172327   -3.447516    2.097995
