19

O      -0.073594    1.312075    0.544554
C       0.057819    0.012221    0.019878
C       1.127476   -0.271684   -1.002200
C       1.234776   -0.839137    0.407401
C      -1.316932   -0.589038   -0.096977
C      -2.323710   -0.040551   -1.159299
C      -2.716824   -1.497038   -1.552154
C      -1.504327   -1.976049   -0.742132
O      -0.876569   -2.996576   -0.707974
H       0.795696    1.724620    0.567738
H       0.927211   -0.963983   -1.812788
H       1.785463    0.548595   -1.273509
H       1.966588   -0.398816    1.078004
H       1.081811   -1.905273    0.527703
H      -1.781948   -0.597045    0.898025
H      -3.123362    0.593213   -0.777229
H      -1.808916    0.482167   -1.967941
H      -3.658037   -1.834113   -1.105302
H      -2.720171   -1.769484   -2.610405
