14

N      -0.023332    1.176314   -0.464969
C       0.039689   -0.006586   -0.048852
N       0.958102   -0.862825    0.528688
C       0.117239   -2.059044    0.475227
C      -1.059221   -1.124937   -0.025282
C      -2.134870   -0.912046    0.926446
C      -3.006895   -0.739150    1.732554
C      -1.554122   -1.473449   -1.355642
N      -1.919168   -1.772035   -2.409974
H       0.862411    1.675090   -0.375127
H       1.964462   -0.809539    0.486109
H       0.415657   -2.805615   -0.266152
H      -0.067944   -2.529193    1.443066
H      -3.786783   -0.575874    2.435339
