15

C       0.096123    1.455343    0.016784
C       0.029880   -0.038056    0.036716
N      -0.068812   -0.665210   -1.096419
N      -0.127187   -2.009753   -1.054013
N      -0.096270   -2.796760    0.021243
C       0.001931   -2.203959    1.171687
C       0.076070   -0.758957    1.305840
N       0.175110   -0.079184    2.403041
O       0.205606   -0.936672    3.518658
H       1.018369    1.799507    0.496783
H       0.050977    1.820902   -1.009715
H      -0.727827    1.878357    0.601292
H      -0.202965   -2.472917   -1.943123
H       0.027140   -2.839641    2.045730
H       0.279167   -0.314461    4.249027
