20

O      -0.157522    1.438701    0.133721
C       0.000275    0.025846    0.128253
C      -1.387812   -0.579745   -0.019479
C      -1.343193   -2.101908   -0.037936
O      -0.307796   -2.744782    0.056574
N      -2.546456   -2.711903   -0.168287
C      -3.933203   -2.260390   -0.299682
C      -4.360616   -3.756122   -0.364355
C      -2.857294   -4.138938   -0.219987
H       0.714539    1.832580    0.226287
H       0.638023   -0.310841   -0.700513
H       0.462547   -0.337229    1.056375
H      -2.028403   -0.234921    0.801957
H      -1.854455   -0.208594   -0.940613
H      -4.308575   -1.701050    0.565470
H      -4.132286   -1.674833   -1.205074
H      -4.995380   -4.081387    0.460047
H      -4.819007   -4.055329   -1.307072
H      -2.410772   -4.655152   -1.076035
H      -2.587105   -4.680739    0.692224
