17

C      -0.246130    1.098448    1.221851
C      -0.135555    0.358154   -0.133045
C       1.134592   -0.498782   -0.121834
O       2.134365   -0.231623   -0.730657
C      -1.293525   -0.492754   -0.386074
C      -2.223434   -1.232421   -0.577850
C      -3.365551   -2.115143   -0.825046
C      -4.103023   -2.474014    0.387907
C      -4.714922   -2.775500    1.375609
H       0.615578    1.756437    1.363700
H      -1.158532    1.698521    1.246537
H      -0.287116    0.385955    2.050960
H      -0.013816    1.090912   -0.938402
H       1.061928   -1.398696    0.529141
H      -4.050035   -1.634154   -1.537424
H      -3.018992   -3.031084   -1.323349
H      -5.254443   -3.040386    2.250987
