17

C      -0.042351    1.576502   -0.031510
C      -0.024761    0.060535   -0.016399
C       1.226893   -0.695599   -0.549963
O       1.987376   -0.230744    0.634061
C       0.685020   -0.672718    1.169032
C       0.431015   -0.551707    2.582541
N       0.186632   -0.469541    3.709413
C       0.832838   -1.963556    0.289556
N      -0.273475   -2.834815    0.047524
H       0.931099    1.977151    0.256260
H      -0.292664    1.945106   -1.031768
H      -0.798217    1.960642    0.660827
H      -0.994288   -0.360563   -0.299146
H       1.721332   -0.614057   -1.517664
H       1.711472   -2.533689    0.593477
H      -1.015601   -2.413667   -0.497387
H       0.022825   -3.681653   -0.421222
