20

C       0.789417    1.204083   -0.708311
C       0.037562    0.011537   -0.102885
C       0.772512   -0.587046    1.077269
C       0.716160   -1.987756    1.542057
C       0.594579   -2.997889    0.393509
C       1.877218   -2.316317   -0.177835
N       2.014187   -1.389667    0.996632
C       0.855879   -4.418124    0.818730
O       0.176895   -5.363845    0.512414
H       1.771857    0.902183   -1.084550
H       0.227586    1.642490   -1.538176
H       0.951308    1.988071    0.038939
H      -0.948225    0.337527    0.251944
H      -0.156976   -0.737366   -0.876038
H       0.878377    0.120086    1.900203
H       0.604999   -2.245789    2.591588
H      -0.320153   -2.968197   -0.202785
H       2.741411   -2.984144   -0.209480
H       1.778234   -1.827853   -1.150931
H       1.764380   -4.541182    1.454664
