18

C       0.188148    1.629758    0.399275
C       1.392284    1.967249   -0.443572
C       2.070746    0.878635   -0.801004
C       1.441190   -0.380784   -0.260857
C       0.069261    0.090946    0.279279
C      -0.495065   -0.666273    1.514412
N      -1.745182   -1.298644    1.067950
C      -1.868332   -0.975618   -0.150698
O      -0.938190   -0.199539   -0.748367
H       0.336673    1.931237    1.445560
H      -0.736780    2.108171    0.060372
H       1.665087    2.987376   -0.688277
H       2.984818    0.869827   -1.383545
H       1.302344   -1.163662   -1.013885
H       2.049941   -0.817754    0.542971
H       0.197588   -1.432593    1.880148
H      -0.700271    0.008308    2.353226
H      -2.686428   -1.272533   -0.798450
