17

O       0.569483    1.147090    0.564913
C       0.136312   -0.133796    0.130232
C      -1.383040   -0.236242    0.087214
C      -2.230879    0.045673   -0.908798
C      -2.010105    0.566616   -2.315836
C      -0.679767    0.250255   -2.999286
O       0.417430    0.555853   -2.123280
C       0.675538   -0.479318   -1.243697
O       1.182756   -1.508435   -1.576702
H       0.331648    1.763676   -0.138743
H       0.534757   -0.851643    0.849769
H      -1.821425   -0.534871    1.036111
H      -3.287760   -0.046383   -0.662872
H      -2.817018    0.193341   -2.958602
H      -2.142571    1.658307   -2.286686
H      -0.616578   -0.801973   -3.296790
H      -0.549052    0.868251   -3.890554
