20

C       0.011255    1.403163   -0.127494
N      -0.032108   -0.045661   -0.240752
C      -1.096331   -0.654382    0.049195
O      -2.272123   -0.041530    0.432705
C      -3.192054   -0.997341    0.985734
C      -2.655696   -2.373967    0.637033
C      -2.413908   -2.677507   -0.815841
C      -3.046221   -1.919009   -1.963181
C      -1.282848   -2.128337    0.042974
H       1.009492    1.703814    0.205985
H      -0.147617    1.859148   -1.113203
H      -0.737318    1.817447    0.558551
H      -3.239251   -0.858107    2.072495
H      -4.181206   -0.785254    0.566031
H      -2.839795   -3.180794    1.336183
H      -2.293448   -3.739966   -1.013635
H      -3.145830   -0.852375   -1.750198
H      -2.440631   -2.021144   -2.869371
H      -4.043924   -2.314820   -2.182867
H      -0.414951   -2.740712    0.245019
