21

C       0.302790    1.272758    0.582003
C      -0.385947    0.212515   -0.296626
C       0.422227   -0.197162   -1.440621
C       1.117148   -0.510434   -2.374365
C       1.923952   -0.947236   -3.516457
O       2.564480   -2.201244   -3.263133
C       1.090348   -0.984397   -4.809586
C       1.920426   -1.377599   -6.024821
O       1.057317   -1.375285   -7.153123
H       1.248885    0.893916    0.977675
H       0.516665    2.175997    0.004322
H      -0.340085    1.545796    1.424077
H      -0.622711   -0.670138    0.311438
H      -1.350005    0.598474   -0.652066
H       2.756048   -0.244477   -3.657128
H       1.889759   -2.799257   -2.922630
H       0.263668   -1.694566   -4.688879
H       0.641257    0.000477   -4.977538
H       2.748433   -0.660218   -6.154664
H       2.368505   -2.366220   -5.856831
H       1.558515   -1.687117   -7.912044
