13

O      -0.423675    0.307994   -0.470224
C       0.095581    0.972393    0.395846
C       1.272382    1.782194    0.203189
C       2.260007    2.467234    0.076181
C       3.415317    3.315900   -0.078578
O       3.949980    3.395564   -1.422171
C       3.747269    4.817753   -1.547685
C       3.154637    4.863081   -0.139660
O       2.704202    5.676066    0.595691
H      -0.308193    1.006787    1.427673
H       4.194568    3.054458    0.651231
H       4.681619    5.377653   -1.676313
H       3.047113    5.079876   -2.350515
