19

C      -0.055043    1.488735   -0.267266
C      -0.076815    0.023246    0.087446
O       1.153801   -0.706513    0.012483
C       0.533388   -0.563267    1.290200
C       1.276101    0.254570    2.319295
O       0.337184    0.856687    3.183795
C       0.964571    0.924671    4.456883
C       1.780347   -0.368775    4.486575
O       2.113935   -0.574879    3.117561
H       0.824003    1.993526    0.136746
H      -0.047964    1.611813   -1.355193
H      -0.950322    1.983581    0.123178
H      -0.926134   -0.524992   -0.325610
H       0.107207   -1.478700    1.702235
H       1.912406    1.008557    1.830073
H       1.614205    1.809910    4.528106
H       0.188870    0.984029    5.223018
H       2.699867   -0.290317    5.074449
H       1.185006   -1.210046    4.866530
