19

C      -0.835865    1.116272   -0.056070
C       0.154576   -0.034444    0.012413
C       1.500371    0.088228   -0.768569
C       2.187040   -0.535536    0.449369
C       3.004114   -1.769781    0.446592
N       3.574681   -0.476493    0.873476
C       0.978994   -0.228116    1.336261
O       1.209439    0.970140    2.051514
H      -0.365672    2.051320    0.263121
H      -1.204963    1.255876   -1.077624
H      -1.707649    0.936611    0.584734
H      -0.336542   -0.979489   -0.242618
H       1.582825   -0.434199   -1.725388
H       1.787193    1.136294   -0.906643
H       2.899223   -2.503531    1.242135
H       3.292443   -2.183585   -0.517242
H       4.149469   -0.078930    0.134012
H       0.642336   -1.030904    2.006611
H       0.392542    1.205456    2.503404
