17

O       0.167420    0.609276   -1.172095
C       0.019292    1.309260   -0.201491
C      -1.323195    1.971215    0.123923
O      -1.269114    2.762772    1.292173
C      -0.245062    3.738413    1.207854
C       1.140459    3.090617    1.183337
C       2.334428    3.914862    0.961735
O       2.015181    3.417172    2.265866
C       1.110661    1.612360    0.812343
H      -1.641061    2.558502   -0.753756
H      -2.072403    1.191180    0.290657
H      -0.391742    4.360281    0.309191
H      -0.328951    4.375797    2.090998
H       3.214533    3.477059    0.492367
H       2.233758    4.993225    0.837395
H       0.856544    1.056074    1.725616
H       2.073123    1.250450    0.447959
