21

C       0.008290    1.355034    0.099552
O      -0.014795   -0.051463    0.072213
C      -1.319565   -0.581036   -0.047008
C      -1.217090   -2.098738   -0.046470
C      -0.580989   -2.658545    1.250499
O      -1.150280   -3.949185    1.471206
C      -2.407659   -3.981504    0.850996
C      -3.394879   -2.883831    1.149355
C      -2.544587   -2.841337   -0.115244
H       1.052178    1.665066    0.190642
H      -0.412041    1.788360   -0.822081
H      -0.558125    1.757488    0.954599
H      -1.950978   -0.241019    0.792226
H      -1.796747   -0.224716   -0.975847
H      -0.610577   -2.399299   -0.908971
H       0.502832   -2.772516    1.187975
H      -0.799220   -1.992264    2.098028
H      -2.738517   -4.993583    0.650565
H      -4.447145   -3.115118    1.023211
H      -3.186879   -2.194513    1.960477
H      -3.027212   -2.959931   -1.078304
