20

C       0.600867    1.609074    0.039391
C       0.157313    0.146880   -0.023242
C       0.470234   -0.646723    1.241697
O      -0.254057   -0.000312    2.315595
C      -0.057607   -0.402813    3.595902
N       0.475920   -1.418799    4.118418
C       1.016452   -2.576368    3.415694
C       0.375638   -2.970323    2.101405
C       0.118104   -2.107412    1.123104
H       1.685238    1.687658    0.176394
H       0.343007    2.135113   -0.884339
H       0.118823    2.125164    0.873092
H      -0.922537    0.083446   -0.206687
H       0.648830   -0.363817   -0.860361
H       1.541167   -0.546250    1.475326
H      -0.479164    0.359192    4.253770
H       2.099653   -2.430346    3.273626
H       0.936406   -3.418560    4.111212
H       0.117791   -4.019747    1.978610
H      -0.360045   -2.434293    0.203490
