18

C       0.266566    1.299308    0.055621
C      -0.143010   -0.188718   -0.000697
C       0.590719   -0.898689   -1.187277
N       1.834055   -1.329482   -0.580266
C       1.800563   -1.450326    0.784663
O       2.686976   -1.884155    1.484835
C       0.423818   -0.948084    1.230285
C      -1.592042   -0.306238   -0.124280
C      -2.786391   -0.395795   -0.227868
H       1.355567    1.389620    0.114053
H      -0.081740    1.830197   -0.834433
H      -0.169340    1.782649    0.933809
H      -0.004018   -1.741951   -1.561323
H       0.763382   -0.207468   -2.018010
H       2.601307   -1.719425   -1.104415
H       0.503464   -0.326633    2.123667
H      -0.192051   -1.817450    1.481167
H      -3.841643   -0.477169   -0.315575
