17

C      -0.009367    1.584879    0.028566
C       1.510898    1.511656   -0.042943
C       2.129624    0.609199    0.953994
C       1.635968    0.275336    2.347705
O       0.229837    0.172992    2.462835
C      -0.335278   -0.585197    1.405285
C       0.012661    0.033301    0.064099
N       1.506185   -0.004148   -0.237532
H      -0.452468    2.107983    0.878071
H      -0.439091    1.965266   -0.900147
H       2.128464    2.148208   -0.670302
H       3.215872    0.556459    0.887101
H       2.107618   -0.676632    2.649162
H       1.951792    1.043531    3.061648
H       0.016298   -1.630381    1.438835
H      -1.417215   -0.579216    1.570652
H      -0.532964   -0.453757   -0.746400
