18

C      -0.303075    1.421240    0.363056
C      -0.431452   -0.079035    0.557355
O      -0.244708   -0.615387    1.619278
C      -0.819442   -0.864475   -0.711686
C      -1.015046   -2.286283   -0.494900
C      -1.170169   -3.462568   -0.287586
C      -1.372487   -4.852515    0.007725
C      -0.293072   -5.629234    0.689918
N      -1.516052   -5.286216    1.420592
H       0.048563    1.882583    1.286137
H       0.388512    1.650955   -0.454848
H      -1.274225    1.849322    0.088941
H      -1.722912   -0.399734   -1.131325
H      -0.033675   -0.681284   -1.459466
H      -2.033057   -5.386326   -0.670815
H      -0.176286   -6.684471    0.459293
H       0.626514   -5.101394    0.923670
H      -1.338620   -4.483931    2.021247
