19

O       0.065564    1.392559    0.086400
C       0.033050   -0.008823    0.047786
C       0.133198   -0.650166    1.455505
C      -1.375679   -0.315118    1.623158
C      -1.414367   -0.634987    0.088392
C      -1.075813   -2.143426    0.066650
C       0.097105   -2.148711    1.105764
C      -2.430515   -0.120273   -0.788806
C      -3.239889    0.362440   -1.538749
H      -0.456227    1.716711   -0.657692
H       0.698982   -0.407184   -0.732372
H       0.881021   -0.307310    2.169351
H      -1.977743   -0.949392    2.279166
H      -1.553361    0.739116    1.823604
H      -1.927518   -2.753458    0.376630
H      -0.765819   -2.475384   -0.927738
H       1.037115   -2.499339    0.670182
H      -0.121319   -2.768640    1.978995
H      -3.971674    0.767743   -2.192827
