18

N       1.660166   -0.083016   -0.793990
C       0.864947    0.670443   -0.426310
C      -0.154983    1.636600    0.032052
O       0.202616    2.977852   -0.172378
C       1.021010    3.570499    0.833321
C       2.506207    3.258915    0.677815
C       3.226122    3.864469   -0.544321
C       4.044198    4.641753    0.507535
O       3.276959    4.069709    1.593943
H      -1.069608    1.456864   -0.543060
H      -0.379226    1.428632    1.089031
H       0.873335    4.650087    0.733089
H       0.678501    3.273630    1.836226
H       2.703672    2.191746    0.834256
H       3.784594    3.158486   -1.158772
H       2.589061    4.475098   -1.186764
H       5.103790    4.368196    0.575193
H       3.961018    5.734367    0.482287
