21

C       0.210187    1.530226   -0.106070
C       0.519937    0.045551   -0.035868
O       0.217335   -0.535918   -1.304216
C       0.457629   -1.930285   -1.378339
C      -0.470363   -2.555814   -2.436629
O       0.317610   -3.485483   -3.160883
C       1.597084   -2.890067   -3.298686
C       1.897979   -2.238896   -1.931476
O       2.709352   -1.090674   -2.008590
H       0.833631    2.023435   -0.857822
H      -0.838458    1.693273   -0.370049
H       0.403550    2.001773    0.861916
H       1.576120   -0.122527    0.213302
H      -0.090045   -0.442406    0.740016
H       0.308503   -2.384576   -0.392239
H      -1.324993   -3.090923   -2.017171
H      -0.840994   -1.746150   -3.085174
H       2.305294   -3.669349   -3.588078
H       1.598614   -2.105044   -4.073827
H       2.411389   -2.950775   -1.279299
H       2.102575   -0.358418   -2.186302
