19

C      -0.025012    1.525629    0.021092
C       0.007005    0.026385   -0.004688
C       0.470484   -1.002006   -1.083454
C       1.314755   -1.734323   -0.042556
C       0.637171   -0.875261    1.075941
O      -0.333059   -1.513654    1.897165
C      -1.176499   -2.369264    1.173004
O      -1.773807   -1.778089    0.037249
C      -0.978348   -0.862401   -0.671701
H       0.977673    1.949816    0.150970
H      -0.439071    1.929204   -0.908914
H      -0.648754    1.888688    0.846642
H       0.771960   -0.813685   -2.108336
H       1.249933   -2.823559    0.017949
H       2.370026   -1.459586   -0.122319
H       1.330952   -0.383605    1.758627
H      -0.632371   -3.277196    0.869291
H      -1.992470   -2.645295    1.845638
H      -1.600322   -0.390284   -1.426412
