16

C       0.053280    1.506949    0.008622
C      -0.038103   -0.030374    0.003153
C      -1.410788   -0.516370    0.013013
C      -2.555551   -0.896399    0.021342
C      -3.892584   -1.338780    0.031319
N      -4.986287   -0.628219    0.043022
C      -6.006990   -1.560119    0.048423
C      -5.474488   -2.806507    0.039865
O      -4.119103   -2.686966    0.028947
H       1.100616    1.821576    0.000814
H      -0.441863    1.928737   -0.869725
H      -0.426514    1.921536    0.898836
H       0.478160   -0.429784   -0.879450
H       0.493327   -0.436923    0.873411
H      -7.044459   -1.266062    0.058066
H      -5.870215   -3.807437    0.039864
