12

C       0.049121    1.518237    0.056091
C      -0.028130    0.033387    0.087976
C      -1.084868   -0.844933   -0.022928
C      -2.509304   -0.580125   -0.213324
O      -3.366319   -1.425484   -0.299524
N      -0.545136   -2.115749    0.082181
N       0.679167   -2.091478    0.238673
O       1.085863   -0.644783    0.250107
H       0.701736    1.843919   -0.759652
H      -0.938053    1.960423   -0.083035
H       0.477005    1.893208    0.990835
H      -2.755214    0.503149   -0.275477
