18

C       0.089190    1.580147   -0.092916
C      -0.034390    0.074354    0.006465
C      -1.379311   -0.517575   -0.402490
N      -1.903615   -1.594934    0.427414
C      -1.193343   -2.090467    1.338737
O       0.077679   -1.769287    1.727061
C       0.657615   -0.625207    1.147895
C       1.205165   -0.765084   -0.253339
O       1.043922   -1.983323   -0.909027
H       1.087855    1.922680    0.197411
H      -0.088523    1.917335   -1.120625
H      -0.637562    2.079662    0.557397
H      -2.127470    0.283395   -0.398471
H      -1.333470   -0.893071   -1.431942
H      -1.556451   -2.908817    1.956697
H       1.201920   -0.056633    1.894554
H       2.131007   -0.240857   -0.488730
H       1.239507   -2.688959   -0.281498
