15

C       0.335851    1.616771   -0.327558
C      -0.037823    0.189124   -0.012539
N       1.021297   -0.821655   -0.039845
C       0.430669   -0.500585    1.264497
C       1.234225    0.189435    2.232008
C       1.878807    0.771127    3.063764
C      -1.387980   -0.277564   -0.458430
O      -1.678008   -1.445024   -0.579329
H       1.262974    1.889333    0.178297
H       0.479451    1.749348   -1.404763
H      -0.450615    2.304679    0.001360
H       0.602944   -1.695330   -0.365330
H      -0.271192   -1.223499    1.674342
H       2.457879    1.275892    3.797243
H      -2.121977    0.526467   -0.676850
