21

C      -0.142577    1.471452   -0.000278
C       0.069097   -0.015038    0.035034
C       1.033430   -0.805172   -0.895863
C       0.717473   -1.930746    0.138870
C       0.705315   -0.801695    1.217070
C      -0.774719   -2.076216   -0.092608
C      -1.445060   -3.083202   -0.967729
C      -1.679382   -3.080724    0.541240
O      -1.188156   -0.709538   -0.159059
H       0.805164    1.997235    0.145888
H      -0.565170    1.776132   -0.962810
H      -0.836800    1.779052    0.787961
H       0.716732   -0.951550   -1.931159
H       2.066135   -0.455000   -0.843002
H       1.308090   -2.840848    0.232083
H       1.705592   -0.451180    1.478758
H       0.089489   -0.944902    2.108031
H      -2.255999   -2.729999   -1.595120
H      -0.850147   -3.882527   -1.398494
H      -1.243520   -3.878374    1.134688
H      -2.642214   -2.725909    0.892030
