20

C      -0.204638    1.554964    0.106112
C      -0.013724    0.061006   -0.140284
C       0.841019   -0.253237   -1.353890
N       1.336346    0.662287   -2.075819
N       0.984924   -1.646690   -1.543540
C       1.713744   -2.271987   -2.550106
O       2.342968   -1.666065   -3.401089
N       1.676465   -3.643564   -2.480702
C       2.285506   -4.460607   -3.513302
H       0.757498    2.049430    0.255390
H      -0.682273    2.031538   -0.752539
H      -0.826498    1.717728    0.991467
H       0.446448   -0.413931    0.738596
H      -0.988408   -0.432363   -0.266332
H       1.882293    0.257992   -2.837752
H       0.551525   -2.231810   -0.846653
H       1.005214   -4.083229   -1.872986
H       1.550704   -4.828709   -4.240399
H       3.010456   -3.839491   -4.039357
H       2.799739   -5.316998   -3.066993
