23

C       0.798230   -0.621562    1.346449
C       0.152258   -0.009542    0.100483
C       0.818979   -0.403452   -1.228359
C       0.799767   -1.911919   -1.497514
C       1.336315   -2.296256   -2.876736
O       0.132694    0.297577   -2.275977
C       1.044900    1.171767   -2.924979
C       2.183986    1.305808   -1.914039
O       2.172750    0.042192   -1.270398
H       0.663272   -1.706561    1.388259
H       1.871973   -0.413308    1.364081
H       0.355244   -0.201682    2.254542
H      -0.907258   -0.281799    0.037087
H       0.182833    1.083993    0.165457
H       1.389122   -2.402511   -0.716052
H      -0.233692   -2.258434   -1.382148
H       2.369138   -1.958827   -2.997792
H       1.315976   -3.381734   -3.010804
H       0.730627   -1.845813   -3.667782
H       1.399151    0.732379   -3.867981
H       0.541806    2.118925   -3.143154
H       3.166196    1.454329   -2.369353
H       1.995911    2.122019   -1.201183
