17

C      -0.009328    1.500703   -0.003984
C      -0.008235   -0.014160    0.030111
O      -0.012831   -0.632221    1.073385
C      -0.001249   -0.737883   -1.283958
C       0.000328   -2.077562   -1.380094
C       0.007634   -2.504925   -2.799390
O       0.011025   -3.638618   -3.216689
C       0.010097   -1.224717   -3.650595
C       0.004892   -0.059412   -2.641507
H       0.872368    1.875460   -0.536260
H      -0.887031    1.873917   -0.543905
H      -0.014140    1.886753    1.015320
H      -0.003093   -2.767260   -0.546761
H       0.890139   -1.224526   -4.300019
H      -0.864870   -1.226063   -4.306874
H      -0.869815    0.590546   -2.760836
H       0.880391    0.590980   -2.752499
