18

C       0.000612    1.535629    0.028234
C       0.128249    0.035354   -0.016681
O      -0.758473   -0.695119    0.858833
C       0.638859   -0.740923    1.135344
C       1.300036   -2.089014    0.915132
C       1.736486   -2.231709   -0.538409
O       0.699697   -1.865587   -1.459790
C       0.216039   -0.592026   -1.382086
N      -0.218571    0.025037   -2.397757
H       0.886941    2.012589   -0.400558
H      -0.863384    1.855935   -0.557233
H      -0.118959    1.867197    1.062629
H       0.933736   -0.181709    2.023478
H       2.175159   -2.199987    1.563969
H       0.585742   -2.874632    1.181505
H       2.620399   -1.609145   -0.733984
H       1.988515   -3.264629   -0.787650
H      -0.104196   -0.554198   -3.232477
