10

F       0.076227    0.094434    0.002244
C      -0.077073    1.388612    0.011489
N      -1.238456    1.908925    0.030186
C      -1.256273    3.288491    0.037945
C      -0.130883    4.033767    0.026664
F      -0.153970    5.358083    0.034043
C       1.184677    3.423293    0.005572
O       2.261371    3.928575   -0.006758
O       1.100663    1.995251   -0.001240
H      -2.231653    3.762165    0.053744
