17

O      -0.412434    1.381423   -0.006478
C      -0.177073    0.012686    0.039508
C      -0.207330   -0.819551   -1.216871
C      -1.311409   -0.949853   -0.184801
C      -1.148341   -2.069568    0.838588
N       0.265758   -1.957439    1.227147
C       0.633384   -0.534937    1.206577
C      -2.086954   -1.882948    1.967777
N      -2.786062   -1.757877    2.880353
H       0.355019    1.806291   -0.404597
H      -0.486650   -0.295767   -2.124392
H       0.503820   -1.629263   -1.337633
H      -2.306257   -0.597526   -0.422144
H      -1.335048   -3.064184    0.415690
H       0.465074   -2.411405    2.109771
H       1.717854   -0.438905    1.076194
H       0.340884    0.024536    2.108914
