19

C       0.073422    1.530026    0.043387
C       0.006243   -0.006271   -0.013117
C       0.784942   -0.559369    1.169448
O       1.866294   -1.083755    1.085219
C      -1.463253   -0.541303   -0.001767
C      -1.486335   -2.076462    0.036529
O      -2.141535   -0.111273    1.185550
C      -2.171514   -0.058344   -1.195383
C      -2.755361    0.355621   -2.161708
H       1.108240    1.870814   -0.045338
H      -0.504850    1.968496   -0.774560
H      -0.322332    1.909076    0.991717
H       0.497529   -0.362544   -0.923648
H       0.287984   -0.410020    2.152608
H      -1.029552   -2.431864    0.964372
H      -2.517663   -2.432105    0.000010
H      -0.934186   -2.491890   -0.809618
H      -2.441627    0.793030    1.047278
H      -3.276814    0.709699   -3.017090
