20

C       0.248587    1.556572    0.019949
C       1.534879    0.751184    0.096155
C       1.994688    0.440246    1.478372
C       1.114848   -0.317157    2.137567
C      -0.066889   -0.705451    1.268914
C       0.192276    0.054716   -0.033954
N      -0.095854   -2.152532    1.024962
C      -0.769321   -2.955444    2.040348
C      -1.405923   -2.721998    0.715612
H      -0.079709    2.064585    0.921453
H       0.042322    2.090214   -0.902592
H       2.244977    0.814568   -0.720591
H       2.916874    0.832672    1.892729
H       1.193304   -0.625994    3.173515
H      -1.016878   -0.377850    1.735005
H      -0.104319   -0.424184   -0.959166
H      -0.306967   -3.910000    2.274434
H      -1.205850   -2.439426    2.894758
H      -2.262747   -2.050000    0.688491
H      -1.415340   -3.502786   -0.039322
