18

C      -0.092964    1.719379    0.255554
C      -0.174279    0.213113    0.148427
C      -1.436375   -0.377719   -0.453624
C      -1.646970    0.013935   -1.924120
O      -2.816122   -0.573449   -2.465760
O       1.039026   -0.435141   -0.272291
C       0.611932   -0.643958    1.074336
C       1.443347   -0.081922    2.117104
N       2.090399    0.353838    2.970159
H       0.817552    2.029713    0.770929
H      -0.091828    2.171287   -0.740587
H      -0.955849    2.110367    0.803631
H      -1.381152   -1.471011   -0.388234
H      -2.308526   -0.060246    0.129152
H      -1.793345    1.094479   -2.015197
H      -0.750540   -0.246877   -2.505891
H      -2.668998   -1.522189   -2.534295
H       0.249419   -1.646417    1.296598
