15

N       0.070292    1.260657   -0.504754
C       0.080457    0.079349   -0.078464
O       1.177184   -0.584703    0.426233
C       0.817974   -1.880583    0.853684
C      -0.132185   -1.988466    2.017055
C      -0.641104   -2.049150    0.587207
N      -1.025633   -0.795282   -0.007567
C      -2.330651   -0.532715   -0.404357
O      -2.735235    0.474130   -0.915963
H       1.002530    1.664849   -0.432699
H       1.579155   -2.621425    0.647671
H      -0.117636   -2.919674    2.572729
H      -0.340220   -1.096765    2.598036
H      -1.086968   -2.943190    0.170254
H      -2.971943   -1.410335   -0.186096
