17

N      -0.012792    1.157410    0.717013
C      -0.054872    0.062205    0.108586
C      -1.150412   -0.906226   -0.278759
C       0.007995   -1.717122   -0.898414
C       0.270265   -3.180981   -0.502819
C      -0.224039   -3.593920   -1.919065
C       0.003692   -2.126122   -2.381944
O       0.953276   -0.692150   -0.457102
H       0.944844    1.508093    0.777911
H      -1.665162   -1.373753    0.562824
H      -1.884624   -0.507490   -0.981417
H       1.343252   -3.353215   -0.381747
H      -0.254659   -3.572192    0.371830
H       0.340402   -4.371395   -2.435571
H      -1.281801   -3.868077   -1.922915
H      -0.737931   -1.659858   -3.034779
H       0.998051   -1.987290   -2.815084
