14

N      -0.123850    1.387060    0.043942
C      -0.032476    0.043935   -0.008893
N       1.087212   -0.624968    0.025324
H       1.971516   -0.129108    0.068500
C       1.187666   -2.018496    0.014682
C       2.327462   -2.809440    0.038775
O       3.617226   -2.388689    0.082929
N       1.932139   -4.076137    0.010872
N       0.573919   -4.061306   -0.030211
N       0.105578   -2.823497   -0.028479
H       0.688658    1.977724   -0.030588
H      -1.013630    1.818844   -0.134154
H      -0.939295   -0.548633   -0.050401
H       4.159090   -3.188002    0.091706
