19

C      -0.071991    1.518560    0.061715
C      -0.050513    0.022454   -0.019114
C      -0.010864   -0.694715   -1.146674
C       0.030105   -2.197635   -0.996150
C      -1.112496   -2.643765   -0.048143
C      -0.065707   -2.260501    1.014167
O       0.999127   -2.541626    0.055156
C       0.006138   -0.752787    1.297408
O       1.213733   -0.461606    1.994557
H       0.764934    1.877809    0.670150
H      -0.011506    1.978084   -0.928413
H      -0.989220    1.874023    0.549280
H      -0.027325   -0.240445   -2.132874
H       0.218949   -2.744295   -1.921405
H      -2.054782   -2.095600   -0.091543
H      -1.283176   -3.721913   -0.069293
H       0.031014   -2.848893    1.930069
H      -0.806207   -0.443417    1.966968
H       1.911984   -0.853641    1.451807
