20

C       0.268212    1.552773   -0.067264
C       0.072403    0.051672    0.027688
N       0.938844   -0.763391   -0.882032
C       1.328137   -1.672847    0.224765
C       0.997536   -3.136146    0.044265
O       1.462999   -3.643619   -1.200672
C       2.658100   -1.209483    0.859601
O       1.961909   -0.226571    1.668062
C       0.672156   -0.703325    1.241178
H       1.310256    1.805941    0.140550
H       0.014782    1.910449   -1.070314
H      -0.370736    2.075549    0.653077
H      -0.993107   -0.206216   -0.065830
H       0.454662   -1.239696   -1.635033
H       1.382478   -3.722659    0.893066
H      -0.090079   -3.269152    0.020034
H       2.421844   -3.556810   -1.220460
H       3.155119   -1.955334    1.496524
H       3.377596   -0.751061    0.173996
H       0.022307   -0.966805    2.079636
