19

C      -0.315266    1.557754   -0.038577
C      -0.076897    0.045685    0.011763
C      -1.427436   -0.656454   -0.180791
C       1.148675   -0.584194   -0.786317
C       2.125281   -0.074162    0.319219
O       2.511731    1.272540    0.267211
C       0.862070   -0.556831    1.145178
C       0.973296   -1.756426    0.196597
O       0.954424   -2.948456    0.210920
H       0.587922    2.144793    0.087703
H      -0.772158    1.821511   -0.999359
H      -1.032727    1.836785    0.742025
H      -1.870881   -0.365897   -1.139560
H      -1.356991   -1.746908   -0.161902
H      -2.127130   -0.352328    0.605486
H       1.317156   -0.603420   -1.861375
H       3.010310   -0.707644    0.461576
H       3.024869    1.461663    1.059314
H       0.713839   -0.542992    2.224049
