17

O       0.357965    1.350459    0.309010
C       0.130865   -0.003641   -0.043743
C      -1.289889   -0.467592    0.294447
C      -1.526367   -1.927724   -0.029849
C      -2.976847   -2.457455   -0.027992
C      -2.734914   -2.678945   -1.506053
N      -3.413845   -3.135870   -2.454896
O      -1.442473   -2.193483   -1.478248
H      -0.168559    1.901635   -0.278508
H       0.335752   -0.187971   -1.107975
H       0.858748   -0.586408    0.532149
H      -1.474926   -0.306219    1.363570
H      -2.018781    0.142386   -0.256246
H      -0.811411   -2.574347    0.489874
H      -3.160375   -3.365752    0.547601
H      -3.746285   -1.717799    0.202171
H      -2.883274   -3.128264   -3.327779
