22

C       0.042952    1.616935    0.011332
C      -0.090574    0.090899   -0.055406
C       0.718592   -0.512902   -1.158733
C       2.039712   -0.230027   -1.770304
C       2.423634   -1.704608   -1.805237
C       0.897128   -1.995323   -1.727735
C       0.364440   -3.286927   -1.166978
C       0.405641   -1.386317   -3.053178
N       0.770417   -0.018337   -2.566449
H       1.070555    1.912694    0.245586
H      -0.224494    2.065775   -0.948873
H      -0.611005    2.030310    0.784420
H       0.214797   -0.356490    0.899910
H      -1.146085   -0.180406   -0.194471
H       2.677790    0.638015   -1.666195
H       2.969601   -2.096185   -2.671668
H       2.938645   -1.993357   -0.884302
H       0.751763   -3.479755   -0.160413
H      -0.729700   -3.277988   -1.109361
H       0.655137   -4.134558   -1.799505
H       0.892820   -1.703198   -3.984299
H      -0.680899   -1.430868   -3.174381
