19

C       0.015053    1.402517   -0.107355
N       0.054269   -0.038379    0.080388
C       0.766956   -0.390858    1.300963
C      -1.289931   -0.616990    0.026715
C      -1.285589   -2.093565   -0.233358
N      -1.552559   -2.589849   -1.433789
N      -1.439527   -3.922746   -1.228472
C      -1.121517   -4.173302    0.056062
N      -1.020445   -3.040292    0.720509
H       1.036265    1.796639   -0.119815
H      -0.453675    1.643819   -1.066683
H      -0.540465    1.935478    0.689802
H       0.298460    0.040143    2.207867
H       0.792310   -1.474934    1.422737
H       1.794925   -0.018837    1.242175
H      -1.861355   -0.418981    0.953791
H      -1.827469   -0.146076   -0.800258
H      -1.601103   -4.563672   -1.987771
H      -0.983626   -5.168649    0.451152
