21

C      -0.045889    1.460557    0.025665
C       0.070403   -0.049373   -0.002097
C       0.750601   -0.662628   -1.196827
C       1.441779   -0.638707    0.173785
C       1.400655   -2.189854    0.223006
C       0.416733   -2.879935    1.124577
C      -0.671703   -3.279218    0.461358
C      -0.636988   -2.946859   -1.018383
C       0.710019   -2.203124   -1.183848
H       0.829029    1.934170   -0.433146
H      -0.931797    1.800368   -0.522062
H      -0.124277    1.833183    1.052872
H      -0.773709   -0.569546    0.445483
H       0.973513   -0.062718   -2.072652
H       2.279188   -0.032238    0.500361
H       2.404296   -2.624063    0.253260
H       0.576224   -3.016331    2.189217
H      -1.516047   -3.791468    0.912955
H      -0.691341   -3.855007   -1.632485
H      -1.492687   -2.325412   -1.314524
H       1.332747   -2.629724   -1.971781
