18

O      -0.010762    0.127823    0.794192
C      -0.042600    1.228299    0.295051
C      -1.303131    1.987293   -0.059703
C      -2.196944    2.484260    1.045834
C      -1.298575    3.452980    0.311739
C      -0.003419    3.926200    0.978283
C       1.195876    3.359578    0.228426
C       2.127200    2.366225    0.867426
N       1.105687    1.940210   -0.070161
H      -1.771800    1.674043   -0.986924
H      -3.262735    2.517367    0.849419
H      -1.940670    2.222451    2.067586
H      -1.767072    4.149488   -0.375956
H       0.043279    5.017707    1.015729
H       0.026111    3.575128    2.016593
H       1.582927    3.965435   -0.589402
H       3.154168    2.280939    0.523376
H       1.970765    2.118912    1.914810
