18

C       0.098156    1.580021   -0.020612
C       0.060904    0.054173    0.000051
O      -1.287081   -0.418253   -0.022957
C       0.773630   -0.649171   -1.142231
C       2.282467   -0.522371   -1.235267
C       1.659412   -1.678018   -0.510722
O       1.591678   -1.551126    0.902288
C       0.747470   -0.536099    1.241597
N       0.499430   -0.151314    2.417814
H       1.121466    1.958381   -0.097038
H      -0.479561    1.946968   -0.873179
H      -0.335748    1.969980    0.904378
H      -1.666551   -0.204218    0.838346
H       0.191584   -0.855268   -2.031017
H       2.731873   -0.713506   -2.203460
H       2.792840    0.227145   -0.638753
H       1.760190   -2.707471   -0.827525
H       1.009654   -0.704590    3.107445
