17

N      -0.076729    1.407386    0.140975
C      -0.005964    0.007997    0.037401
C      -1.217641   -0.698056   -0.037252
N      -2.434387    0.016818   -0.074004
C      -1.184497   -2.092818   -0.117740
O      -2.404538   -2.718794   -0.197778
C       0.023774   -2.785954   -0.110279
C       1.217450   -2.076503   -0.009510
C       1.205917   -0.687948    0.059465
H       0.805575    1.864505   -0.045858
H      -0.806959    1.796141   -0.445992
H      -2.484361    0.707742    0.667933
H      -3.228640   -0.607509   -0.012938
H      -2.264521   -3.669920   -0.223505
H       0.023718   -3.870615   -0.171777
H       2.161360   -2.610231    0.001673
H       2.136766   -0.132713    0.122034
