16

O       0.198382    1.327808   -0.094121
C       0.048381   -0.070029   -0.039584
C      -1.435768   -0.508099    0.095092
C      -2.183348   -0.013557   -1.063107
N      -2.726607    0.376532   -2.006722
C      -1.559946   -2.020602    0.257778
C      -2.783677   -2.765101   -0.121023
N      -1.537994   -2.930416   -0.893531
H      -0.147837    1.638827   -0.938151
H       0.496371   -0.575083   -0.906951
H       0.580664   -0.406715    0.854931
H      -1.840364   -0.014184    0.987822
H      -0.980717   -2.383283    1.105005
H      -3.085076   -3.633562    0.456852
H      -3.600252   -2.208779   -0.572890
H      -1.609599   -2.402436   -1.761790
