21

C      -0.669635    1.213208   -0.108574
C      -0.015616   -0.180089   -0.037006
C       0.720491   -0.530528   -1.340657
O      -0.232921   -0.551985   -2.387371
C       0.319629   -0.847609   -3.631666
C      -0.405119   -0.317124   -4.824010
C       0.945326    0.259223   -4.442461
C       0.903934   -0.287372    1.093109
C       1.677883   -0.360118    2.010198
H       0.093875    1.989885   -0.217917
H      -1.342954    1.260421   -0.966714
H      -1.236513    1.421421    0.802143
H      -0.810371   -0.928033    0.086345
H       1.505402    0.213872   -1.543042
H       1.208463   -1.511885   -1.242523
H       0.767421   -1.840371   -3.695838
H      -0.480554   -0.943722   -5.705376
H      -1.276797    0.295231   -4.623774
H       0.948065    1.248781   -3.999200
H       1.807189    0.032956   -5.060435
H       2.351414   -0.431087    2.827948
