19

C      -0.162281    1.545188    0.063677
C       0.049509    0.029213    0.008892
C       0.812264   -0.516120    1.198669
O       0.169009   -0.208324    2.455032
C       1.138352   -0.871063    3.277484
C       1.113935   -2.284623    2.637818
C       0.918537   -2.062536    1.343526
C       2.433381   -0.169015    2.793092
C       2.232809    0.047811    1.498345
H       0.791966    2.081895    0.066845
H      -0.739455    1.888984   -0.799633
H      -0.700502    1.822970    0.973236
H      -0.919094   -0.481409   -0.041339
H       0.595868   -0.248485   -0.901577
H       0.888766   -0.793332    4.334631
H       1.288058   -3.212958    3.162672
H       0.885040   -2.760606    0.518808
H       3.310512    0.012705    3.397464
H       2.903366    0.458230    0.756482
