13

O      -0.142641   -0.085017    0.005417
C      -0.069332    1.108683    0.011244
N      -1.081062    2.061894    0.029636
C      -0.501129    3.303977    0.027586
C      -1.302009    4.572677    0.045020
C      -0.498755    5.786434    0.040858
C       0.133047    6.805707    0.037806
N       0.786913    3.233817    0.008634
O       1.084332    1.846679   -0.002775
H      -2.059199    1.830030    0.042370
H      -1.977237    4.565485   -0.822427
H      -1.953965    4.556102    0.929958
H       0.707800    7.699008    0.034455
