19

C       0.008702    1.535990   -0.131209
O       1.282970    2.154261    0.052250
C       2.230760    1.447302    0.839274
C       1.787173    1.236413    2.290878
O       0.622910    0.429363    2.429978
C       0.351620   -0.499318    1.414756
C      -0.025473    0.025466    0.051026
C       1.278934   -0.730600    0.249549
C       2.546339    0.093334    0.196800
H      -0.714812    1.991803    0.561439
H      -0.302478    1.792805   -1.149818
H       3.118812    2.087755    0.851599
H       2.627783    0.785702    2.842765
H       1.549472    2.196981    2.758391
H      -0.195044   -1.342931    1.823119
H      -0.832737   -0.469072   -0.480742
H       1.335597   -1.742432   -0.140920
H       2.877325    0.245461   -0.835951
H       3.358708   -0.403180    0.741034
