17

C       0.128886    1.507618   -0.082112
C      -0.042033    0.022504   -0.054932
C      -1.202718   -0.664224    0.050108
C      -2.547883    0.008990    0.159323
C      -1.186517   -2.143016    0.061254
O      -2.204055   -2.819902    0.153965
C       0.149652   -2.725347   -0.048028
C       1.231545   -1.940838   -0.147167
O       1.174711   -0.593831   -0.153722
H       0.769304    1.833139    0.745031
H       0.618686    1.818394   -1.011510
H      -0.830494    2.017029   -0.004144
H      -2.770301    0.630243   -0.714555
H      -3.309092   -0.769678    0.231233
H      -2.619569    0.645632    1.047373
H       0.250516   -3.803309   -0.047514
H       2.253913   -2.288939   -0.231618
