13

N      -0.011842   -1.083661    0.034768
C      -0.046155    0.071223    0.027914
C      -0.067276    1.510663   -0.015975
O      -1.007869    2.163884    0.860620
C      -0.854006    3.314146   -0.005640
C       0.644833    3.708334   -0.000374
C       1.246402    2.350336   -0.022432
N       0.959204    3.049024   -1.315956
C      -0.440424    2.438928   -1.216973
H      -1.653569    4.045584    0.066098
H       1.143064    4.607280    0.336576
H       2.243269    2.078346    0.296053
H      -1.019269    2.171826   -2.096585
