16

N       0.099177    1.285317   -0.407017
C       0.085434    0.087117   -0.012916
O       1.141142   -0.577101    0.542721
C       0.748176   -1.871594    0.973754
C      -0.244145   -1.921993    2.094987
C      -0.706500   -2.079625    0.658926
C      -1.140258   -0.824868   -0.065891
C      -2.374317   -0.105853    0.474738
O      -3.118595   -0.573990    1.294062
H       1.013152    1.713517   -0.254111
H       1.530983   -2.605634    0.835477
H      -0.259328   -2.812132    2.713602
H      -0.467763   -1.000404    2.621043
H      -1.086794   -3.037600    0.330623
H      -1.352205   -1.031167   -1.124383
H      -2.525269    0.901419    0.036818
