13

O      -0.971403    0.808669    0.334672
C       0.042692    0.812233   -0.306812
C       1.210931    1.755342   -0.015986
C       1.169765    2.480995    1.342913
C       2.372047    1.598209    1.669685
O       3.120897    1.410654    2.565224
O       2.378444    0.977092    0.426804
C       1.569790    2.605472   -1.219630
O       0.809651    2.796344   -2.131052
H       0.221652    0.110380   -1.144412
H       1.385038    3.550923    1.339735
H       0.266223    2.276234    1.918779
H       2.593107    3.037144   -1.183662
