21

C      -0.150579    1.559637    0.011800
C       0.027358    0.048427    0.002028
O      -1.262011   -0.531802    0.011209
C      -1.372191   -1.963136    0.004607
C      -0.730485   -2.575461    1.260867
C      -2.885658   -2.202688    0.017845
C      -0.754769   -2.561900   -1.270220
H       0.822806    2.059865    0.005207
H      -0.715494    1.884142   -0.866744
H      -0.698632    1.874671    0.904360
H       0.595533   -0.254751   -0.890444
H       0.612398   -0.264214    0.880223
H      -1.127024   -2.096401    2.161170
H      -0.950666   -3.646109    1.315802
H       0.357763   -2.464826    1.261530
H      -3.347789   -1.743657   -0.860612
H      -3.113151   -3.272750    0.014264
H      -3.330800   -1.753195    0.909903
H       0.333270   -2.451082   -1.290602
H      -0.976004   -3.631937   -1.332359
H      -1.168507   -2.073308   -2.157568
