19

C       0.034579    1.525504   -0.081945
C       0.023220    0.003839    0.076336
O       0.561984   -0.387227    1.341938
C      -1.387240   -0.565443    0.048932
C      -2.053582   -0.751875   -1.357157
O      -1.214091   -1.939792   -1.537431
C      -1.490333   -2.120632   -0.105404
C      -3.015086   -2.324469   -0.109244
C      -3.404587   -1.380653   -0.968999
H       1.059768    1.911353   -0.041810
H      -0.391939    1.828975   -1.043745
H      -0.539126    1.999242    0.721165
H       0.597445   -0.455838   -0.739470
H       1.463453   -0.054575    1.394833
H      -2.003365   -0.113470    0.830839
H      -1.996133   -0.026018   -2.167963
H      -0.829923   -2.818752    0.404518
H      -3.580885   -3.045624    0.461416
H      -4.384971   -1.094514   -1.319417
