11

N       0.110393    1.296171    0.146678
C      -0.034254   -0.048612    0.050480
N      -1.150744   -0.729127    0.016377
C      -0.732706   -2.039406   -0.013145
C       0.627191   -2.100304   -0.001688
O       1.090484   -0.786719    0.041116
C       1.562530   -3.145347   -0.027781
N       2.320818   -4.022757   -0.050908
H       0.990585    1.685531   -0.150914
H      -0.711815    1.831793   -0.081111
H      -1.429242   -2.862349   -0.044815
