14

N      -0.260169   -1.205941   -0.174022
C      -0.138695   -0.059858   -0.092581
C       0.004397    1.385969    0.010578
C      -0.238935    2.006426    1.462199
N       1.151617    2.458089    1.363631
N       2.132289    3.170805    1.921788
C       3.090076    3.080362    0.979982
C       2.708422    2.331497   -0.168564
C       1.419942    1.954028    0.151974
H      -0.602085    1.868606   -0.760727
H      -0.976826    2.811048    1.494049
H      -0.423883    1.277362    2.253330
H       4.041847    3.560601    1.155274
H       3.295642    2.121885   -1.045805
