16

C      -0.274189    1.457419   -0.318365
O      -1.148651    0.464649   -0.867230
C      -1.514740   -0.497056   -0.034669
N      -1.125296   -0.586447    1.216178
O      -1.786589   -1.755526    1.649680
C      -2.477609   -2.213467    0.602805
C      -3.249274   -3.482981    0.755351
N      -4.457447   -3.431580   -0.063183
N      -2.357004   -1.489823   -0.467745
H      -0.082559    2.161728   -1.127378
H      -0.750249    1.964389    0.526089
H       0.660351    1.001315    0.021501
H      -2.558501   -4.311015    0.511583
H      -3.514824   -3.600083    1.811551
H      -4.211554   -3.126357   -1.000151
H      -4.856088   -4.360953   -0.142620
