25

C       0.052002    1.643166    0.203655
C       0.000629    0.110959    0.083842
C       0.758551   -0.553907    1.243325
C      -1.455559   -0.364325    0.061672
O       0.513475   -0.309610   -1.192742
C       1.886277   -0.183063   -1.453323
C       2.819983   -1.412121   -1.242487
C       3.499566   -1.057998   -2.592930
C       2.245118   -0.216472   -2.955325
H       1.079450    2.018511    0.226693
H      -0.463792    2.104727   -0.643242
H      -0.435670    1.971561    1.126968
H       0.291541   -0.296074    2.199143
H       0.744194   -1.642522    1.137003
H       1.801108   -0.225524    1.284924
H      -1.984127    0.078917   -0.786886
H      -1.497236   -1.452138   -0.042149
H      -1.973297   -0.080042    0.982631
H       2.310214    0.709082   -0.974257
H       3.438230   -1.451375   -0.342087
H       2.235324   -2.333621   -1.316845
H       4.386182   -0.433044   -2.453907
H       3.760403   -1.883667   -3.257617
H       1.502944   -0.814827   -3.491355
H       2.379011    0.735509   -3.474358
