14

O       0.087650    1.312785   -0.192282
C      -0.018513   -0.064286   -0.065682
C      -0.441293   -0.643209    1.237436
O      -0.920571    0.335058    2.142042
C      -2.211797    0.792499    1.739256
C      -2.562143    0.090707    0.421320
O      -3.615775    0.177761   -0.152811
C      -1.391876   -0.762208    0.062979
H       0.167046    1.664871    0.704748
H       0.694172   -0.614617   -0.674263
H       0.051309   -1.477698    1.723666
H      -2.954489    0.537197    2.504553
H      -2.209362    1.879786    1.603109
H      -1.564620   -1.670157   -0.499399
