17

N       0.014533   -1.218638    0.432067
C       0.005596   -0.077475    0.250894
C       0.039792    1.375059    0.006679
N      -0.680021    2.088534    1.068950
C       0.321278    2.281855    2.136569
C       1.689095    2.503735    1.442544
C       1.492562    1.908644    0.047422
C       2.549101    1.441061   -0.849613
O       1.887618    2.693923   -1.076304
H      -0.405192    1.571296   -0.972165
H      -0.956465    2.992698    0.697705
H       0.023019    3.108916    2.783178
H       0.346205    1.374590    2.749790
H       1.918927    3.567532    1.332413
H       2.515675    2.034871    1.981969
H       3.588913    1.512167   -0.534814
H       2.338134    0.659928   -1.578854
