10

O      -0.011394    0.009238    0.050026
C      -0.036199    1.185103   -0.073733
O       1.125191    1.931001    0.124890
C       1.073881    3.262994    0.086990
N       2.083978    4.046157   -0.114577
C       1.477793    5.274308   -0.013987
N       0.195768    5.265884    0.225675
O      -0.090524    3.879910    0.304914
H      -0.896171    1.807630   -0.351788
H       2.012794    6.206200   -0.126894
