21

O       0.071647    0.939619    0.950318
C      -0.072546    0.205089   -0.261158
C      -1.401429   -0.388372   -0.322828
C      -2.499110   -0.877395   -0.397638
C      -3.817177   -1.496869   -0.462362
C      -3.886271   -2.866319    0.248642
C      -5.265314   -3.483854    0.176570
C      -5.683859   -4.280119   -1.035812
C      -5.443690   -4.976010    0.282114
H       0.957759    1.315930    0.951706
H       0.073054    0.856501   -1.138770
H       0.684057   -0.593897   -0.331673
H      -4.558764   -0.819959   -0.017211
H      -4.116369   -1.619650   -1.511418
H      -3.152873   -3.541742   -0.207707
H      -3.580895   -2.738884    1.293958
H      -6.047355   -2.882975    0.635949
H      -6.703572   -4.188487   -1.393129
H      -4.950712   -4.425439   -1.823082
H      -4.551110   -5.585880    0.377106
H      -6.299786   -5.357336    0.827647
