18

C      -0.017138    1.529910    0.072613
C      -0.039689    0.028477    0.020027
C       1.156624   -0.795671   -0.355634
C       0.582097   -0.982661    1.038735
C       1.331243   -0.676584    2.214680
N       1.930788   -0.422661    3.172582
C      -0.679852   -1.814175    0.987254
C      -1.882840   -0.989619    1.357013
C      -1.289163   -0.828391   -0.017606
H       0.954834    1.901599    0.410492
H      -0.210066    1.953272   -0.919910
H      -0.782028    1.913638    0.754847
H       1.069327   -1.617438   -1.060771
H       2.101145   -0.261792   -0.398064
H      -0.700302   -2.896781    0.953219
H      -2.821814   -1.533125    1.398401
H      -1.793432   -0.195886    2.093165
H      -1.844260   -1.070569   -0.916492
