25

C      -0.157183    1.566117   -0.110123
C      -0.015317    0.044100   -0.005471
C       0.562647   -0.464795    1.330003
C      -0.358361   -0.139359    2.515222
C       0.851674   -1.973219    1.224784
C       1.607442   -2.609325    2.416324
C       1.783562   -4.127377    2.207198
C       2.902507   -1.966465    2.639515
C       3.977013   -1.452583    2.807610
H       0.801968    2.064800    0.069829
H      -0.499669    1.857422   -1.108186
H      -0.878170    1.964075    0.610218
H      -0.993217   -0.427933   -0.176922
H       0.633992   -0.304601   -0.818785
H       1.522296    0.044387    1.494156
H      -0.552966    0.933998    2.590063
H      -1.325885   -0.646422    2.410055
H       0.080491   -0.449496    3.468118
H      -0.095858   -2.516224    1.103647
H       1.437112   -2.162137    0.316219
H       1.003931   -2.469152    3.322674
H       2.295952   -4.583639    3.058118
H       0.807517   -4.608909    2.090730
H       2.375234   -4.327361    1.308661
H       4.922237   -0.995650    2.966128
