20

C      -0.438624    1.479411   -0.036503
C       0.000271    0.006729   -0.035064
C       0.935461   -0.323655   -1.175684
C       2.089671   -0.856622   -0.778588
C       2.184643   -0.975549    0.720076
O       3.306497   -0.281073    1.262934
C       0.809533   -0.458305    1.194636
C       0.661521    0.136212    2.546082
N       0.176263   -1.230302    2.279728
H       0.420682    2.146208    0.086979
H      -0.929184    1.733752   -0.982268
H      -1.150046    1.689485    0.768354
H      -0.906365   -0.611809   -0.120757
H       0.655992   -0.131835   -2.207146
H       2.903123   -1.165708   -1.425460
H       2.320211   -2.008400    1.057060
H       3.271821    0.622246    0.928155
H       1.535703    0.193838    3.187370
H      -0.065823    0.930275    2.690909
H      -0.835719   -1.213391    2.165014
