18

C      -0.005719    1.475863    0.042265
C       0.028379   -0.020274    0.002670
C      -0.928881   -0.891892    0.811903
C      -1.939942   -1.838046    0.424299
C      -2.852581   -2.586594    0.186539
C       0.576856   -1.065815    0.947873
C       1.263548   -1.696383   -0.271602
C       0.388173   -2.031265   -1.411081
N       0.755399   -0.615321   -1.192883
H       0.989856    1.884732   -0.155660
H      -0.684542    1.863862   -0.726035
H      -0.347434    1.839417    1.015846
H      -1.279250   -0.287946    1.649743
H      -3.639262   -3.260150   -0.048162
H       1.068669   -0.946987    1.905411
H       2.320316   -1.942802   -0.254388
H       0.884601   -2.430030   -2.292319
H      -0.629518   -2.366455   -1.274572
