14

N      -0.289074    1.075933    0.477570
C      -0.093392   -0.105228    0.076593
N      -0.970992   -0.837242   -0.715012
C      -0.642312   -2.257570   -0.629610
C       0.876294   -2.129944   -0.346062
O       1.011709   -0.875383    0.323359
C      -1.376258   -2.978355    0.413820
C      -1.995366   -3.560317    1.263712
H       0.517248    1.412664    0.998514
H      -1.938658   -0.558531   -0.651512
H      -0.807642   -2.749820   -1.593869
H       1.258722   -2.920545    0.299709
H       1.439690   -2.107516   -1.285585
H      -2.539850   -4.072701    2.018504
