21

C      -0.026901    1.491180   -0.279536
C      -0.038234   -0.036158   -0.190373
C      -1.414864   -0.596882    0.216948
C      -1.459906   -2.083278    0.291221
C      -1.652626   -2.971187    1.302722
C      -1.567522   -4.280526    0.722164
C      -1.327496   -4.101750   -0.603895
C      -1.136259   -5.031324   -1.747787
O      -1.259557   -2.764524   -0.879668
H       0.958884    1.864845   -0.573101
H      -0.752667    1.850937   -1.017602
H      -0.282541    1.947788    0.683415
H       0.246856   -0.469931   -1.155383
H       0.711752   -0.376115    0.533894
H      -1.701849   -0.200902    1.197549
H      -2.169331   -0.237891   -0.497154
H      -1.835891   -2.724289    2.337140
H      -1.673062   -5.228930    1.226058
H      -1.894171   -4.878295   -2.524989
H      -0.155582   -4.896340   -2.218843
H      -1.208087   -6.064570   -1.400769
