15

C       0.030208    1.434244   -0.055333
N      -0.007125   -0.008317    0.011556
N      -0.083207   -0.756518   -1.128904
C      -0.048808   -2.017669   -0.712634
C       0.054748   -2.111287    0.694813
N       0.118716   -3.182141    1.633355
C       0.080988   -0.790852    1.104828
O       0.170884   -0.283360    2.347129
H       1.026307    1.793330   -0.335530
H      -0.690750    1.772053   -0.801898
H      -0.233371    1.840222    0.922618
H      -0.104782   -2.819072   -1.436639
H       0.928701   -3.774811    1.480527
H      -0.699467   -3.781142    1.584396
H       0.199263   -1.058262    2.929833
