18

O       0.144059    1.455421   -0.104172
C       0.080010    0.049149   -0.053956
C       0.198060   -0.615194    1.352660
C      -1.324627   -0.256977    1.519479
C      -1.340845   -0.594016   -0.017032
C      -1.059073   -2.106989    0.046035
C       0.293184   -2.662308   -0.335390
C       0.079552   -2.122658    1.059459
H      -0.442722    1.827877    0.560811
H       0.768768   -0.272817   -0.832781
H       0.957670   -0.289751    2.064205
H      -1.918558   -0.897104    2.176887
H      -1.530591    0.789546    1.767071
H      -2.130514   -0.247253   -0.684412
H      -1.904907   -2.781714    0.118050
H       0.335056   -3.745698   -0.399185
H       0.940431   -2.177324   -1.055101
H       0.095654   -2.809245    1.898633
