19

C       0.059111    1.484162   -0.076253
C       0.023983    0.029828   -0.028990
C      -0.005578   -1.173138    0.012682
C      -0.031052   -2.647636    0.033615
C      -1.480335   -3.165177    0.072714
O       0.521056   -3.175504   -1.180550
C       0.727699   -3.136875    1.199881
C       1.361240   -3.551411    2.136108
C       2.125790   -4.050355    3.269718
H       0.812115    1.887402    0.609716
H       0.300681    1.841445   -1.083370
H      -0.909469    1.913057    0.203110
H      -2.012575   -2.804369   -0.810232
H      -1.469999   -4.257390    0.068181
H      -1.986262   -2.810307    0.972222
H       1.432754   -2.867413   -1.234229
H       2.812685   -4.847065    2.963575
H       2.722314   -3.254819    3.729557
H       1.466528   -4.461117    4.042238
