17

C       1.037935    0.908173   -0.526734
C       0.237830   -0.311686   -0.217699
C      -0.484164   -1.228682   -0.953413
N      -0.724064   -1.369654   -2.327947
C       0.079487   -1.091557   -3.396596
N       1.203244   -0.486981   -3.328947
N      -1.124821   -2.136190   -0.140154
C      -0.796800   -1.798083    1.084345
N       0.021845   -0.716184    1.092968
H       1.399142    0.849908   -1.554571
H       0.445492    1.825344   -0.410764
H       1.902444    0.989356    0.143515
H      -1.492193   -1.998348   -2.504356
H      -0.379859   -1.446832   -4.327129
H       1.597965   -0.386043   -4.260364
H      -1.115136   -2.298543    1.986130
H       0.421556   -0.272540    1.902995
