19

C      -0.044493    1.530055    0.049402
C       0.002291    0.021801    0.024147
O      -1.168814   -0.596933   -0.449601
C       1.309137   -0.703995   -0.249370
C       0.705087   -0.737604    1.132128
O       1.396013   -0.008334    2.104006
C       0.097920   -1.999876    1.666292
C       0.767944   -2.765110    2.722808
O      -0.332018   -1.895005    3.035613
H       0.833660    1.937785    0.553108
H      -0.081041    1.936174   -0.968784
H      -0.939559    1.868281    0.581244
H      -1.216771   -0.449021   -1.400878
H       1.263386   -1.611276   -0.842770
H       2.213347   -0.115522   -0.363244
H       0.832314   -0.033827    2.890743
H      -0.606564   -2.497536    1.006587
H       0.559433   -3.827576    2.833370
H       1.736289   -2.429114    3.085878
