18

O      -0.006256   -0.019508    0.052440
C      -0.003212    1.186189   -0.022099
N      -1.108597    2.010337   -0.096845
C      -0.730628    3.415264    0.060598
C       0.636179    3.406042   -0.651288
C       1.211168    2.136758   -0.004771
C       1.505915    2.454615    1.476337
O       0.319888    2.805526    2.182782
C      -0.497485    3.771491    1.544258
H      -2.003282    1.651010    0.201734
H      -1.466835    4.084987   -0.391570
H       0.514634    3.299995   -1.732282
H       1.225085    4.303992   -0.444963
H       2.082808    1.701007   -0.493903
H       1.903997    1.577762    1.993099
H       2.249977    3.266071    1.535900
H      -0.054325    4.779755    1.608762
H      -1.437940    3.779434    2.104584
