12

C       0.009281    1.380172    0.157116
N       0.337195   -0.036030    0.106305
C       0.660195   -0.574283   -0.961029
O       0.781257   -0.040089   -2.234570
N       1.175778   -1.049333   -3.120383
C       1.270739   -2.095716   -2.380713
O       0.983611   -1.918910   -1.074223
C       1.648233   -3.383107   -2.847459
N       1.954223   -4.434190   -3.216810
H       0.681698    1.871882    0.866868
H       0.078180    1.893392   -0.808328
H      -1.008129    1.492180    0.544459
