20

C      -0.085062    1.339042    1.105145
O      -0.233565   -0.047506    0.918524
C      -1.323998   -0.371619    0.076630
C      -1.360204   -1.891524   -0.019016
C      -2.464167   -2.864359    0.285964
C      -3.787171   -2.577956   -0.449569
C      -3.795629   -1.424180   -1.376354
N      -3.138893   -2.673359   -1.804013
C      -1.815088   -2.857361   -1.088428
H       0.775777    1.490544    1.760843
H       0.096362    1.863514    0.153224
H      -0.974364    1.786818    1.576990
H      -2.255383    0.033334    0.502534
H      -1.180186    0.093015   -0.914321
H      -0.420994   -2.271719    0.382232
H      -2.398451   -3.605966    1.071580
H      -4.686968   -3.146632   -0.237253
H      -4.722064   -1.255551   -1.920173
H      -3.221351   -0.525180   -1.206866
H      -1.130801   -3.560353   -1.547308
