17

O      -0.058634    1.392050    0.020315
C      -0.010737    0.016355    0.004429
C      -1.282811   -0.888446    0.106511
C      -0.381097   -1.884952    0.784775
C      -0.512118   -1.871993   -0.733028
C       0.545108   -0.820294   -1.208497
C       1.962699   -1.159429   -0.850338
C       2.078259   -1.170839    0.488347
C       0.743497   -0.839903    1.089806
H       0.845599    1.721873   -0.054299
H      -2.334752   -0.666933    0.199211
H      -0.649053   -2.746302    1.381659
H      -0.879660   -2.723496   -1.289669
H       0.338916   -0.415860   -2.200196
H       2.737688   -1.416639   -1.562939
H       2.963507   -1.438956    1.053160
H       0.710870   -0.452643    2.108883
