21

C       0.176942    1.579242    0.008089
C       0.033282    0.066191    0.028675
C       0.929861   -0.799500   -0.919016
C       1.398460   -1.661748    0.288059
C       2.649094   -1.117584    0.988133
O       1.873005   -0.126544    1.708382
C       0.617673   -0.706934    1.239907
C      -0.244601   -1.066032    2.425108
O      -0.498697    0.091517    3.205326
H       1.215479    1.866960    0.194574
H      -0.128247    1.989715   -0.960371
H      -0.443525    2.035987    0.785453
H      -1.019156   -0.214685   -0.094129
H       0.379402   -1.349527   -1.685100
H       1.740440   -0.250041   -1.407823
H       1.254005   -2.740409    0.241160
H       3.131195   -1.821391    1.679086
H       3.415068   -0.658170    0.351396
H      -1.216287   -1.451319    2.098142
H       0.248938   -1.852107    3.019733
H       0.367657    0.472558    3.395934
