16

C      -0.034588    1.496232   -0.096232
C       0.008617   -0.017272   -0.011015
C       1.344649   -0.728300   -0.176092
C       0.702948   -0.670607    1.175915
C      -1.178546   -0.709467   -0.544892
N      -1.366313   -2.001578   -0.578756
O      -2.584566   -2.160232   -1.150211
N      -3.105638   -0.911118   -1.451061
N      -2.268708   -0.044973   -1.090801
H       0.883649    1.917479    0.321828
H      -0.125696    1.835834   -1.132216
H      -0.882673    1.903963    0.461808
H       1.340327   -1.676159   -0.701401
H       2.206629   -0.099368   -0.369933
H       1.119276   -0.001758    1.921189
H       0.262506   -1.579339    1.569141
