19

C       0.703944    1.258732    0.266633
C      -0.147834    0.042236   -0.089147
C       0.361673   -0.724264   -1.320803
C       1.235050   -1.820076   -0.707553
O       2.042876   -2.520642   -1.265132
C       0.892782   -1.843918    0.746417
C       0.947043   -3.114719    1.543270
C       1.997141   -2.060427    1.765920
O      -0.138875   -0.927450    0.983662
H       1.760376    0.987041    0.364424
H       0.620460    2.025516   -0.510792
H       0.370621    1.688203    1.214987
H      -1.192636    0.344568   -0.199771
H      -0.459450   -1.209745   -1.860536
H       0.924207   -0.120076   -2.035023
H       0.178269   -3.231987    2.298573
H       1.226437   -4.014119    1.005269
H       2.996210   -2.237433    1.382530
H       1.927940   -1.461853    2.666975
