20

C      -0.237782    1.500483    0.013494
C       0.032105   -0.012287    0.035475
C       0.813760   -0.431121    1.281704
N      -1.187187   -0.825524   -0.043797
C      -1.977656   -0.753656   -1.196199
C      -3.351230   -0.903355   -1.291903
N      -3.649057   -0.846855   -2.620836
N      -2.576877   -0.657501   -3.396416
C      -1.554486   -0.602005   -2.542463
H       0.698808    2.067779   -0.003436
H      -0.822730    1.779421   -0.867181
H      -0.798894    1.804355    0.905503
H       0.635399   -0.270279   -0.843582
H       0.241990   -0.207994    2.191423
H       1.021773   -1.504055    1.266185
H       1.761078    0.111593    1.348143
H      -1.740216   -0.738770    0.800184
H      -4.109918   -1.050878   -0.540131
H      -4.555404   -0.922256   -3.048370
H      -0.553756   -0.456690   -2.919601
