23

C       0.141369    1.597968    0.163168
C       0.069991    0.082896    0.048135
C       1.062002   -0.637494   -0.908601
C       1.267824   -1.747228    0.169961
C       0.406864   -2.983710   -0.093325
C       2.737381   -2.137018    0.424677
C       2.928138   -2.961856    1.613104
C       3.062884   -3.632134    2.602425
C       0.628689   -0.780328    1.214407
H       1.162218    1.927017    0.389700
H      -0.165389    2.084208   -0.769937
H      -0.511817    1.968234    0.961472
H      -0.957534   -0.216965   -0.183084
H       0.686600   -0.958070   -1.884776
H       1.970805   -0.045327   -1.064498
H       0.760912   -3.526182   -0.978038
H       0.438489   -3.669528    0.758950
H      -0.638383   -2.709571   -0.268955
H       3.129304   -2.666257   -0.455228
H       3.337902   -1.223729    0.524014
H       3.193651   -4.225881    3.472779
H       1.390421   -0.240635    1.787144
H      -0.087833   -1.212596    1.917710
