20

C       0.008469    1.484006   -0.074384
C       0.010911   -0.031744    0.026084
C      -1.183941   -0.678549   -0.653293
C       1.353887   -0.748041   -0.037960
C       0.607193   -0.647229    1.271874
O       1.072595    0.260348    2.230765
C       0.000694   -1.895465    1.914656
C       0.995754   -2.572851    2.748434
N       1.814110   -3.063541    3.400813
H       0.847520    1.923691    0.464780
H       0.063278    1.791705   -1.124583
H      -0.913933    1.900011    0.346580
H      -1.240050   -0.350190   -1.697072
H      -1.131501   -1.770423   -0.664958
H      -2.123288   -0.389141   -0.167852
H       1.403923   -1.710444   -0.538133
H       2.247438   -0.140590   -0.135927
H       1.864078   -0.113733    2.637227
H      -0.846377   -1.608931    2.548289
H      -0.367914   -2.601260    1.166815
