12

O       0.083127    1.366866   -0.071801
C       0.055562    0.011837   -0.038858
C       0.017951   -0.730783   -1.218883
N      -0.010295   -2.063240   -1.248271
C      -0.002058   -2.718430   -0.085485
C       0.034448   -2.083412    1.155200
C       0.063160   -0.703343    1.156874
F       0.099256    0.000064    2.300411
H       0.106740    1.690296    0.837180
H       0.011078   -0.202099   -2.168556
H      -0.025597   -3.802999   -0.139009
H       0.040500   -2.635087    2.087426
