21

C      -0.037642    1.508316   -0.053163
C       0.193366    0.011954   -0.015075
O       1.369255   -0.412985   -0.775343
C       1.832136   -1.189689    0.341475
C       2.167091   -0.282286    1.483408
C       0.720288   -0.680300    1.240227
C       2.409845   -2.521552    0.050876
C       1.850219   -3.368408   -1.065706
C       3.202947   -2.721206   -1.220734
H       0.800656    2.055400    0.385760
H      -0.164014    1.845831   -1.086894
H      -0.947836    1.761770    0.501041
H      -0.684443   -0.517949   -0.407760
H       2.615943   -0.764796    2.346647
H       2.518641    0.727652    1.291114
H       0.118467   -1.194616    1.977609
H       2.767843   -3.042343    0.933800
H       1.800027   -4.441202   -0.916395
H       1.034821   -2.946876   -1.641903
H       3.272678   -1.876488   -1.896065
H       4.089116   -3.344248   -1.175897
