17

C      -0.174318    1.533056   -0.060451
C       0.035217    0.034037    0.056280
O       0.701633   -0.460523   -1.152812
C       1.813686   -1.217440   -0.725804
O       2.830046   -0.376282   -0.218299
C       2.343279    0.129054    1.058430
C       0.944595   -0.498409    1.194228
C       1.271767   -1.859794    0.557270
O       1.137842   -2.988423    0.926013
H       0.770223    2.069458   -0.176329
H      -0.786729    1.743252   -0.941917
H      -0.698538    1.918314    0.820185
H      -0.943155   -0.459984    0.127303
H       2.198070   -1.829290   -1.537066
H       3.012917   -0.200312    1.860958
H       2.341971    1.222028    1.030660
H       0.509162   -0.508249    2.190282
