21

C       0.200893    1.684183    0.275518
C      -0.092108    0.197721    0.027078
C       0.616243   -0.404658   -1.200156
C       2.150324   -0.596227   -1.047011
O       2.027740   -2.022006   -1.143353
C       0.592947   -1.954175   -1.361403
C      -0.178297   -2.832319   -0.397551
C       0.228003    0.339318   -2.459395
O      -0.473311   -0.106075   -3.332425
H       1.277415    1.876886    0.340374
H      -0.206220    2.325621   -0.511409
H      -0.246870    2.003947    1.220814
H       0.216989   -0.374128    0.908508
H      -1.173535    0.047646   -0.076101
H       2.766511   -0.174075   -1.853167
H       2.568299   -0.278411   -0.082858
H       0.346631   -2.236285   -2.391738
H       0.045009   -2.595314    0.645720
H      -1.256111   -2.732133   -0.563141
H       0.092863   -3.878718   -0.569165
H       0.649524    1.366923   -2.542279
