14

C      -0.460432   -1.333867   -0.093750
C      -0.219006   -0.158754   -0.038630
C       0.045266    1.260748    0.034737
C      -0.199194    1.992696    1.429029
C       1.287882    2.321124    1.387023
C       2.527695    2.842995    1.676625
N       3.363255    2.450793    0.660480
N       2.727067    1.735351   -0.238906
N       1.471467    1.665165    0.232791
H      -0.664043   -2.375353   -0.147171
H      -0.399412    1.792229   -0.810998
H      -0.880214    2.843186    1.369529
H      -0.513836    1.316233    2.224191
H       2.889580    3.441139    2.495071
