17

C       0.073813    1.593130   -0.047069
C      -0.016227    0.070230    0.072753
N       0.670694   -0.610735   -1.077386
C       1.556703   -1.729887   -0.643268
C       1.570722   -1.482067    0.820116
C       0.730626   -0.520011    1.226956
N       0.828347   -0.362266    2.601108
C       1.721855   -1.242287    2.930912
O       2.236679   -1.977848    1.894215
H       1.119701    1.906542   -0.102836
H      -0.436873    1.937829   -0.951391
H      -0.393955    2.072622    0.819001
H      -1.080463   -0.213166    0.115673
H      -0.002950   -0.931853   -1.759083
H       1.152913   -2.721960   -0.900226
H       2.546198   -1.653053   -1.114388
H       2.110001   -1.470078    3.911007
