17

C      -0.052555    1.580448   -0.086623
C       0.031083    0.065483    0.024442
C       1.058291   -0.663334   -0.872649
O       2.362740   -0.226010   -0.478094
C       1.732696   -1.267789    0.287721
C       0.774676   -0.573134    1.236950
C       0.995071   -0.054119    2.599377
N       0.152780   -1.251322    2.366570
H       0.948766    2.016791   -0.046427
H      -0.523905    1.881329   -1.028589
H      -0.646265    2.007421    0.729114
H      -0.956621   -0.400366   -0.081435
H       0.937507   -1.025295   -1.887117
H       2.259351   -2.207085    0.405463
H       1.930574   -0.245659    3.117552
H       0.508100    0.878870    2.872466
H      -0.832169   -1.002460    2.428245
