23

C      -0.019167    1.596844   -0.272699
C      -0.012576    0.097001    0.057501
C      -1.395357   -0.537228    0.008132
C      -2.114007   -0.700795   -1.364821
C      -2.631181   -2.083941   -0.886256
C      -1.527596   -2.074404    0.205332
C       1.362332    2.201871   -0.234598
C       1.621962    3.560398    0.256030
O       1.928073    2.421817    1.062802
H      -0.447794    1.756972   -1.271305
H      -0.659098    2.131231    0.439952
H       0.649076   -0.428034   -0.646354
H       0.424779   -0.041868    1.054456
H      -2.062135   -0.019370    0.709249
H      -2.853103    0.050658   -1.654085
H      -1.387733   -0.803578   -2.179051
H      -3.632018   -2.012593   -0.450464
H      -2.627152   -2.905121   -1.606860
H      -0.623770   -2.593447   -0.131514
H      -1.785475   -2.441365    1.201987
H       2.073122    1.783856   -0.951428
H       2.481674    4.119029   -0.112353
H       0.790334    4.171144    0.606571
