19

O      -0.280461    1.424646   -0.001308
C      -0.051124    0.031026    0.140677
C      -1.374138   -0.666460   -0.142430
C      -1.268496   -2.168692   -0.020595
O      -0.271903   -2.777002    0.279808
O      -2.453947   -2.753053   -0.309442
C      -2.496822   -4.167032   -0.221531
C      -3.269841   -4.769768    0.912155
C      -3.829503   -4.778400   -0.498624
H       0.546007    1.882086    0.177359
H       0.714138   -0.330564   -0.560812
H       0.292516   -0.225829    1.152656
H      -2.146602   -0.307554    0.547052
H      -1.730394   -0.413514   -1.146998
H      -1.585264   -4.642438   -0.560012
H      -2.907341   -5.695510    1.344249
H      -3.723281   -4.082441    1.617038
H      -4.645396   -4.096868   -0.710224
H      -3.861255   -5.711577   -1.049274
