21

C      -0.427302    1.371966   -0.293291
C      -0.359484   -0.154401   -0.374634
C       0.832396   -0.646610   -1.196945
C       0.875198   -2.168022   -1.403950
O       0.163362   -2.352457   -2.621656
C       0.435740   -1.215180   -3.418495
C      -0.810279   -0.912893   -4.248871
O      -1.978733   -0.889527   -3.461027
O       0.763962   -0.154222   -2.541029
H       0.464977    1.784534    0.191497
H      -0.496095    1.801364   -1.295845
H      -1.300226    1.697384    0.279932
H      -0.285736   -0.585478    0.632601
H      -1.276320   -0.540056   -0.833413
H       1.767627   -0.279073   -0.756145
H       1.907882   -2.532571   -1.501694
H       0.367161   -2.734368   -0.620081
H       1.299939   -1.404338   -4.080330
H      -0.696063    0.073624   -4.706981
H      -0.873718   -1.660129   -5.056415
H      -1.960241   -1.707663   -2.949462
