20

C      -0.233081    1.476721   -0.876589
C      -0.058348    0.173427   -0.088972
C      -1.385285   -0.500932    0.202740
C      -2.017149   -1.386014   -0.815562
C      -1.449507   -2.016928    0.457224
C      -0.273792   -2.833663    0.401714
N       0.685765   -3.480218    0.358838
O      -2.314114    0.241648    0.932184
C      -1.941328    0.527464    2.271232
H       0.734126    1.955873   -1.051538
H      -0.698515    1.289136   -1.849646
H      -0.871728    2.180425   -0.335600
H       0.576017   -0.525649   -0.642590
H       0.468409    0.368972    0.852491
H      -3.097539   -1.366927   -0.890797
H      -1.484069   -1.567232   -1.741381
H      -2.182979   -2.326414    1.193650
H      -1.684230   -0.387869    2.821765
H      -1.093122    1.221349    2.327670
H      -2.808635    0.995632    2.741127
