13

N       0.040934    1.323539   -0.017216
C      -0.031432   -0.031307    0.010195
N      -1.160699   -0.659812    0.084154
C      -1.125272   -2.043438    0.159913
C       0.035366   -2.704245    0.149783
F       0.194622   -4.008273    0.221586
O       1.234603   -2.086607    0.058355
C       1.284597   -0.715416   -0.029724
N       2.373265   -0.077320   -0.146760
H       0.928119    1.732489   -0.261741
H      -0.809419    1.837089   -0.174761
H      -2.064594   -2.574444    0.229110
H       3.180786   -0.699293   -0.167783
