19

C      -0.004147    1.467096   -0.003538
C       0.001459   -0.038586    0.058066
C      -0.299226   -0.813141   -1.212874
O       0.090827   -2.185270   -1.075110
C      -0.701145   -2.253856    0.172279
C       0.262959   -2.103109    1.337502
C       0.980951   -0.763724    1.001010
O       2.259107   -0.947783    0.415430
C      -1.280880   -0.845965   -0.086723
H       0.995836    1.840561   -0.248104
H      -0.697211    1.837879   -0.766517
H      -0.302713    1.905791    0.955519
H      -0.327051   -0.389227   -2.210351
H      -1.365452   -3.118942    0.166466
H      -0.296959   -2.034465    2.277531
H       0.981499   -2.923088    1.418770
H       1.158404   -0.167567    1.901144
H       2.109419   -1.512766   -0.353940
H      -2.298730   -0.494837    0.014001
