19

C       0.196894    1.521486   -0.001173
C       0.441965    0.040772    0.125465
O       1.730081   -0.384572    0.593660
C       0.584461   -0.696087    1.393359
C       0.515335   -0.064223    2.773694
C       1.532995   -0.734168    3.683350
O       1.280658   -1.739745    4.312985
C       2.925097   -0.132764    3.747402
O       3.777720   -0.892552    4.549013
H       0.564152    2.076696    0.863908
H       0.707826    1.908247   -0.888772
H      -0.873646    1.720815   -0.118451
H       0.083808   -0.544373   -0.724256
H       0.323103   -1.755631    1.392316
H       0.709302    1.009194    2.714195
H      -0.481387   -0.229530    3.194127
H       3.297545   -0.045473    2.713345
H       2.828051    0.900089    4.126536
H       3.227200   -1.618773    4.883051
