20

C      -0.152424    1.564121   -0.018722
C       0.052721    0.048778    0.011644
C       0.737713   -0.517511   -1.255452
C       1.018472   -2.032650   -1.125016
C       1.870462   -2.598419   -2.235667
C       1.759454   -3.999341   -2.660212
O       1.210920   -2.945801   -3.451945
C      -0.068416   -0.215296   -2.444613
N      -0.729172    0.056762   -3.353008
H       0.802881    2.091661   -0.115517
H      -0.786932    1.861636   -0.858502
H      -0.630176    1.906393    0.903647
H       0.676910   -0.227498    0.869482
H      -0.909380   -0.459032    0.145912
H       1.698864    0.000208   -1.383318
H       1.535662   -2.190004   -0.170232
H       0.071769   -2.580800   -1.080515
H       2.832121   -2.100905   -2.382049
H       2.624017   -4.506270   -3.085960
H       1.030794   -4.649880   -2.177745
