14

N       0.000074    1.424111   -0.147200
C       0.020740    0.036995   -0.056643
C      -1.179270   -0.685294   -0.084930
O      -2.359852   -0.013741   -0.133429
C      -1.106567   -2.070376   -0.053157
F      -2.273242   -2.746460   -0.076563
C       0.112208   -2.723487    0.007704
N       1.259117   -2.042556    0.041884
C       1.203201   -0.711501    0.010968
H       0.802753    1.887619    0.252151
H      -0.871183    1.845876    0.140479
H      -3.073849   -0.663180   -0.129823
H       0.150927   -3.808181    0.030992
H       2.155720   -0.185085    0.039313
