14

N       0.531798    1.376007   -0.276987
C      -0.130156    0.197767    0.268438
C       0.726277   -0.482394    1.285861
N       2.014784   -0.276560    1.452323
N       2.304752   -1.136851    2.442457
C       3.622168   -1.246319    2.968596
O       3.924512   -1.994988    3.844449
N       1.239060   -1.841290    2.865762
N       0.244224   -1.441847    2.146563
H       1.418425    1.115868   -0.697206
H      -0.039744    1.777991   -1.012119
H      -1.059567    0.502127    0.763511
H      -0.421647   -0.565790   -0.475615
H       4.285248   -0.543328    2.441410
