18

C      -0.047672    1.497678   -0.011741
C      -0.016614    0.002819    0.015256
N       0.000880   -0.672885   -1.109500
O       0.044360   -2.016686   -0.747686
C       0.053497   -2.098681    0.589908
C       0.015602   -0.865083    1.157626
C      -0.006229   -0.495348    2.608777
C      -1.420392   -0.241111    3.138216
O      -1.302472    0.131036    4.500220
H       0.807317    1.917223    0.529108
H      -0.015688    1.852382   -1.043479
H      -0.955292    1.885817    0.462248
H       0.096371   -3.096462    1.000376
H       0.447615   -1.288286    3.211920
H       0.589159    0.408186    2.782281
H      -1.904880    0.550382    2.544117
H      -2.024543   -1.153777    3.015923
H      -2.184769    0.283356    4.850792
