23

C      -0.006883    1.619716    0.134643
C       0.030929    0.093606    0.043592
O       0.766214   -0.467435    1.131729
C      -1.374120   -0.516072   -0.059267
C      -1.393920   -2.045107   -0.209986
C      -2.818061   -2.655530   -0.091305
C      -2.858629   -3.843620   -1.084812
C      -1.722951   -3.527160   -2.029631
C      -0.933485   -2.564513   -1.557304
H       1.005729    2.019771    0.234759
H      -0.470140    2.059475   -0.754581
H      -0.590479    1.941789    1.006648
H       0.612228   -0.190336   -0.842183
H       0.318995   -0.209728    1.945978
H      -1.933821   -0.237400    0.847037
H      -1.907433   -0.056581   -0.902031
H      -0.736274   -2.450099    0.571988
H      -3.066253   -2.946371    0.933150
H      -3.553075   -1.902646   -0.399663
H      -2.683014   -4.804549   -0.580041
H      -3.826651   -3.937987   -1.590157
H      -1.565514   -4.067022   -2.957356
H      -0.032487   -2.207253   -2.044618
