18

C       0.012663    1.508601   -0.044304
C       0.004006    0.015066   -0.038171
N      -0.127729   -0.684941   -1.097393
C      -0.104706   -2.102401   -0.728920
C       0.145897   -2.157340    0.802247
N       0.155819   -0.731432    1.153269
C       0.215062   -0.230525    2.446377
N       0.356287   -1.204598    3.419588
O       0.108204    0.948933    2.724985
H       0.931620    1.897230    0.400921
H      -0.076378    1.840115   -1.079155
H      -0.807565    1.906048    0.556509
H      -1.057215   -2.569337   -1.003572
H       0.677774   -2.622427   -1.290695
H      -0.640521   -2.686004    1.349394
H       1.107872   -2.628123    1.043621
H       0.816298   -2.073250    3.200626
H       0.573020   -0.818411    4.325391
