19

C      -0.724848   -1.050299   -0.816197
C      -0.340498    0.022309   -0.433009
C       0.106597    1.323113    0.036591
C      -0.136598    1.664469    1.530169
C       1.399977    1.775381    1.613231
C       2.065131    3.076378    2.115635
C       2.422356    2.328607    3.430617
C       2.190923    0.987846    2.679171
O       1.541415    1.411263    0.226769
H      -1.058780   -1.998375   -1.159088
H      -0.236098    2.102266   -0.656113
H      -0.692179    2.587034    1.706074
H      -0.575620    0.851840    2.109824
H       2.955494    3.292095    1.517861
H       1.447810    3.976975    2.173248
H       3.414493    2.502153    3.850411
H       1.678777    2.495410    4.214328
H       1.676254    0.174536    3.197273
H       3.116978    0.602418    2.242833
