11

N      -0.006445    1.395843    0.137170
C      -0.054177    0.027559    0.039675
C      -1.175764   -0.739652    0.009825
O      -1.150785   -2.077106   -0.028389
N       0.124603   -2.765022   -0.038791
N       1.153307   -2.091448   -0.024300
C       1.220491   -0.662946    0.001641
O       2.296996   -0.103204   -0.016727
H       0.901423    1.775987   -0.093780
H      -0.794481    1.927101   -0.197862
H      -2.189120   -0.349210    0.016443
