15

C      -0.113728    1.367094   -0.009597
O      -0.056149   -0.047330    0.054278
C       0.647726   -0.594241    1.059440
C       1.305176    0.092476    2.014377
O       2.005872   -0.545287    3.013744
C       1.998241   -1.891005    2.984693
N       1.418007   -2.642019    2.139966
C       0.677761   -2.068439    1.082867
N       0.069829   -2.756936    0.199141
H       0.887376    1.801718   -0.131026
H      -0.722168    1.607304   -0.881617
H      -0.581687    1.788034    0.890223
H       1.363421    1.164532    2.112551
H       2.576269   -2.294881    3.810737
H       0.221198   -3.747442    0.403582
