18

C       0.032109   -1.119092    0.334618
C       0.002350    0.051663    0.065856
C      -0.032820    1.479389   -0.233442
N       1.296067    2.088049   -0.100036
C       1.385357    3.543935   -0.093779
C       1.181505    4.066624    1.356011
C       0.980033    2.829478    2.228686
C       1.956582    2.119499    1.241158
C       2.522703    3.545414    0.868818
H       0.055239   -2.155905    0.562046
H      -0.353399    1.629831   -1.272730
H      -0.799252    1.961146    0.396799
H       1.212623    4.154115   -0.972134
H       0.902450    5.092669    1.559717
H       1.461553    2.957656    3.201424
H      -0.021244    2.410194    2.372608
H       2.512848    1.229936    1.527310
H       3.516097    3.965252    0.824391
