19

O      -0.045491    1.438098   -0.026850
C       0.014139    0.018817   -0.010852
C      -1.416957   -0.501747    0.058695
C      -1.431692   -2.032559    0.169566
C      -0.449746   -2.690692   -0.758278
C       0.522036   -2.032728   -1.412172
C       0.721452   -0.533810   -1.254037
C       1.414265   -2.707668   -2.292519
C       2.196113   -3.228484   -3.047722
H       0.854548    1.775046   -0.083584
H       0.556128   -0.329383    0.885245
H      -1.933335   -0.043207    0.907082
H      -1.943189   -0.184111   -0.849470
H      -1.209299   -2.341886    1.202306
H      -2.439664   -2.416461   -0.031899
H      -0.538748   -3.764561   -0.896671
H       0.336189   -0.009286   -2.138556
H       1.795770   -0.315420   -1.211218
H       2.874321   -3.704542   -3.711358
