19

C      -0.632591    1.406336    0.014133
C       0.027604    0.045839   -0.039497
O       1.182159    0.001368   -0.917079
C       1.980661   -0.648771    0.081159
C       2.873945    0.319581    0.883664
C       1.736580    0.500545    1.935433
C       0.841160   -0.499451    1.164294
C       0.291756   -1.674355    1.899782
O       0.503951   -1.923763    3.061450
H       0.067911    2.184446    0.327272
H      -1.008720    1.670585   -0.979099
H      -1.480072    1.393377    0.707812
H      -0.706694   -0.707318   -0.367089
H       2.390763   -1.603599   -0.259633
H       3.774396   -0.149110    1.288574
H       3.156792    1.206119    0.312679
H       1.984253    0.112708    2.924615
H       1.333964    1.508622    2.047961
H      -0.333170   -2.355351    1.275376
