16

N       0.120259    1.544323    0.054600
C      -0.044498    0.117048   -0.031106
C      -1.322912   -0.640882    0.138883
C      -2.544428   -0.113043   -0.629258
C      -2.336341    1.099130   -1.452481
N      -1.848432   -0.208053   -1.957511
C      -0.596063   -0.653334   -1.225452
C       0.180084   -1.677129   -1.845561
N       0.826385   -2.505586   -2.332043
H       0.075700    1.837138    1.026215
H       1.033405    1.808888   -0.301673
H       0.770757   -0.486547    0.381568
H      -1.403430   -1.462797    0.838310
H      -3.515936   -0.576960   -0.497352
H      -3.198918    1.422492   -2.029444
H      -1.637364    1.864432   -1.153076
