14

C       0.001481    1.411894    0.011533
N      -0.044678   -0.034418   -0.004516
N      -0.009056   -0.713039   -1.176028
C       0.030167   -1.960771   -0.728585
N       0.055558   -3.271822   -1.134598
C       0.066226   -4.005445    0.048264
N       0.043867   -3.292956    1.147630
C       0.021959   -1.997881    0.671317
N      -0.021542   -0.743122    1.130428
H       1.034982    1.770563   -0.035323
H      -0.549859    1.786058   -0.851405
H      -0.459655    1.754624    0.937313
H       0.073281   -3.643407   -2.068222
H       0.092807   -5.085659    0.016618
