13

N      -0.002397    1.409671    0.162759
C      -0.033530    0.028956    0.059208
C      -1.171139   -0.717731    0.031824
O      -2.393182   -0.164678    0.035532
O      -1.210157   -2.060949   -0.011968
N      -0.043545   -2.819007   -0.030945
C       1.056408   -2.145995   -0.015446
C       1.219295   -0.686760    0.016828
O       2.315032   -0.130454   -0.000583
H       0.912835    1.764568   -0.087944
H      -0.765664    1.903769   -0.275206
H      -3.053355   -0.869932    0.007154
H       1.952980   -2.758955   -0.038491
