20

C       0.019026    1.507150   -0.214345
C      -0.029287    0.025361    0.031128
N      -1.119262   -0.613746   -0.012375
C      -1.189777   -2.063730    0.047551
C      -0.582543   -2.755673    1.279842
O      -0.946034   -4.130004    1.300095
C       0.939336   -2.713165    1.272825
C       1.494256   -1.300908    1.364380
O       1.239769   -0.471550    0.224883
H       0.710769    1.719820   -1.036408
H      -0.973301    1.882624   -0.460641
H       0.406691    2.028677    0.667665
H      -2.252522   -2.334319    0.002609
H      -0.719355   -2.496968   -0.847333
H      -0.951761   -2.243508    2.185023
H      -1.907258   -4.184641    1.299980
H       1.315040   -3.287946    2.127277
H       1.309792   -3.201886    0.364032
H       1.107157   -0.798502    2.262226
H       2.584121   -1.331138    1.440851
