17

O       0.026735    1.338308    0.185235
C       0.103883   -0.034603    0.121582
C       0.801109   -1.014178    1.090561
C       0.085597   -1.906419    0.056279
C      -1.149853   -0.947128   -0.040573
C      -1.085403   -0.930757   -1.593793
C      -1.602888    0.202847   -2.333207
C      -2.044603    1.119366   -2.974714
C       0.398803   -0.945157   -1.135772
H       0.902623    1.706066    0.025170
H       1.896261   -1.032358    1.079365
H       0.420190   -1.043854    2.116073
H       0.048329   -2.991432   -0.004385
H      -2.029962   -0.953280    0.602902
H      -1.412095   -1.869734   -2.056187
H      -2.431147    1.940725   -3.525074
H       1.299014   -0.945550   -1.752409
