22

C      -0.053983    1.534075    0.063428
C       0.040227    0.026090    0.076361
C       0.863698   -0.797431   -0.985970
C       0.710406   -1.916960    0.094159
C       1.534571   -3.178066    0.129126
C       0.867130   -0.763110    1.128306
N      -0.767174   -2.183950   -0.063198
C      -1.628914   -1.760095    1.056110
C      -1.266249   -0.785961   -0.005232
H       0.939058    1.994604    0.046769
H      -0.600600    1.888297   -0.818392
H      -0.581162    1.905056    0.949711
H       0.395645   -0.989204   -1.955261
H       1.890109   -0.441661   -1.108783
H       2.604432   -2.948542    0.152195
H       1.296572   -3.773511    1.017542
H       1.328236   -3.795400   -0.750591
H       1.900580   -0.411269    1.162586
H       0.499326   -0.871556    2.149952
H      -2.618357   -2.208490    1.016896
H      -1.230767   -1.671890    2.060263
H      -2.002197   -0.485931   -0.748860
