18

C      -1.018732    1.096829   -0.062767
C      -0.044923   -0.070204   -0.056111
C       1.299339    0.056163   -0.837244
C       2.034881   -0.668445    0.339960
C       3.320821   -0.157864    0.777243
N       4.329979    0.275705    1.139672
C       0.787231   -0.359742    1.199368
C       0.747576    0.261246    2.522230
O       0.380261   -1.116107    2.308886
H      -0.521897    2.028890    0.226482
H      -1.448905    1.240509   -1.059222
H      -1.846549    0.922489    0.632679
H      -0.557452   -0.993782   -0.350670
H       1.365688   -0.427741   -1.811657
H       1.623105    1.095364   -0.926255
H       2.106713   -1.745416    0.160221
H       1.675086    0.415841    3.070233
H      -0.074800    0.923335    2.786007
