13

C      -0.025166    1.363719    0.004714
O       0.026914   -0.066202   -0.027904
C       0.641552   -0.591498   -1.078248
N       1.175414    0.120783   -2.043948
O       1.693172   -0.898108   -2.902252
C       1.387381   -2.058857   -2.314997
N       1.817938   -3.196821   -2.913134
N       0.736894   -1.952254   -1.189244
H       0.984084    1.785865    0.016231
H      -0.560813    1.750007   -0.867555
H      -0.555703    1.619420    0.921715
H       2.033168   -3.140548   -3.895538
H       1.370075   -4.044104   -2.603689
