18

C       0.083027    1.512087   -0.280681
C      -0.018154    0.034817    0.141142
C      -1.418040   -0.492209    0.173628
C      -2.226325   -0.869199    1.216705
C      -3.487640   -1.279335    0.677158
C      -4.650586   -1.762797    1.408131
O      -5.702891   -2.100750    0.905374
C      -3.402089   -1.135587   -0.698183
N      -2.160366   -0.663896   -0.985031
H       1.125022    1.846180   -0.280032
H      -0.315538    1.670464   -1.288540
H      -0.484377    2.150613    0.402524
H       0.599560   -0.576709   -0.531082
H       0.409184   -0.089667    1.140802
H      -1.951638   -0.857762    2.261297
H      -4.509104   -1.806185    2.512495
H      -4.133277   -1.340350   -1.462636
H      -1.820715   -0.471766   -1.912880
