16

C       0.028411    1.525660    0.041862
C      -0.034049    0.030330   -0.046788
C      -0.878777   -0.816156    0.820544
N       0.584689   -0.905324    0.994915
C       1.040695   -1.796923   -0.128414
C       0.512967   -0.801017   -1.199774
O      -0.470732   -1.216215   -2.122897
H       1.018332    1.901480   -0.239100
H      -0.709221    1.981324   -0.628886
H      -0.184775    1.863090    1.060174
H      -1.374931   -0.323017    1.651139
H      -1.416463   -1.664505    0.404215
H       2.127174   -1.908335   -0.112866
H       0.568271   -2.785019   -0.127776
H       1.338295   -0.284273   -1.707656
H      -0.035747   -1.694698   -2.835905
