17

C       0.000301    1.418749    0.020942
C       0.009236   -0.035212    0.019274
C       0.010730   -1.240248    0.018445
C       0.029535   -2.667400    0.021246
N       0.593365   -3.512407    1.138706
C       0.133213   -4.518601    0.131678
C      -1.140057   -3.686189   -0.218047
N      -0.927219   -3.683316   -1.700383
C       0.458696   -3.654841   -1.134263
H       0.704432    1.823384   -0.714447
H      -0.994845    1.807874   -0.220930
H       0.281203    1.812804    1.003824
H       1.615280   -3.446388    1.134820
H       0.224243   -5.596405    0.271959
H      -2.118171   -3.693090    0.261769
H      -1.129135   -4.611524   -2.081798
H       1.363795   -3.621680   -1.744356
