15

N       0.116404    1.453333    0.412021
C       0.049181    0.101457   -0.084124
C      -1.385545   -0.587129   -0.011907
N      -1.264948   -0.737428   -1.472083
N      -1.649674   -1.418916   -2.585562
C      -0.573869   -1.186336   -3.344449
O      -0.526639   -1.624031   -4.608037
N       0.466544   -0.478744   -2.788093
C      -0.042498   -0.235984   -1.588543
H       1.071097    1.795932    0.387982
H      -0.437859    2.078023   -0.166150
H       0.805848   -0.499275    0.427505
H      -1.412967   -1.535157    0.530703
H      -2.202183    0.063530    0.308779
H       0.332760   -1.357196   -4.956393
