19

O       0.063343    1.365934   -0.134604
C       0.065800   -0.034024    0.005938
C      -1.360580   -0.638354    0.003971
C      -1.336575   -2.173876    0.107791
N      -2.678337   -2.718619   -0.001935
C      -3.141626   -3.051704   -1.346820
C      -2.780453   -4.123140   -0.377496
C      -2.129001   -0.030397    1.093657
N      -2.661257    0.509869    1.966417
H      -0.361649    1.744549    0.644113
H       0.610545   -0.430653   -0.856205
H       0.593420   -0.358030    0.916000
H      -1.842783   -0.353001   -0.938747
H      -0.655820   -2.558467   -0.673810
H      -0.922866   -2.470400    1.078114
H      -4.181611   -2.822783   -1.557903
H      -2.458033   -2.886487   -2.178996
H      -1.857693   -4.670378   -0.565131
H      -3.551674   -4.691653    0.133347
