23

C      -0.693572    1.559393    0.196405
C      -0.484875    0.050355    0.338731
C       0.811022   -0.312573    1.079014
C       0.984876   -1.830361    1.201686
C       2.200234   -2.710516    1.026150
C       3.503084   -2.289003    1.761671
C       3.419046   -1.020250    2.567138
C       2.754593   -2.268103    3.083728
C       1.447828   -2.689418    2.355091
H       0.128900    2.022488   -0.360397
H      -1.623556    1.786402   -0.334302
H      -0.742247    2.046973    1.176632
H      -1.337651   -0.391532    0.871005
H      -0.472493   -0.415851   -0.655404
H       1.657062    0.129696    0.540149
H       0.789530    0.154028    2.070779
H       0.142497   -2.343013    0.732958
H       2.215466   -3.502618    0.286963
H       4.452525   -2.759719    1.541173
H       4.344197   -0.783768    3.087155
H       2.875574   -0.144542    2.245664
H       3.047754   -2.720550    4.022334
H       0.811099   -3.463208    2.767254
