16

C      -0.019755    1.473120    0.021542
C       0.000502   -0.018685   -0.015749
C      -0.036215   -0.811465   -1.097197
N       0.002489   -2.156657   -0.679111
N      -0.007786   -3.343065   -1.303598
N       0.047945   -4.245867   -0.353597
C       0.093788   -3.633621    0.869643
C       0.064776   -2.273797    0.672583
C       0.069814   -0.885807    1.244523
H       0.878165    1.871977    0.509456
H      -0.072515    1.895011   -0.985299
H      -0.880138    1.846063    0.590781
H      -0.086863   -0.573767   -2.148198
H       0.143058   -4.208507    1.779462
H       0.972812   -0.671806    1.829811
H      -0.783236   -0.697832    1.908404
