18

C      -0.057031    1.743734   -0.200720
C      -0.049007    0.220967   -0.033232
N      -1.399135   -0.315902    0.010356
C      -1.943799   -0.852562    1.141845
O      -1.389627   -0.913245    2.216688
C       0.780754   -0.474569   -1.158098
N       2.194567   -0.116708   -1.231123
C       0.668780   -1.939285   -1.039358
N       0.580272   -3.086401   -0.939038
H       0.955805    2.155466   -0.174849
H      -0.521543    2.036430   -1.150047
H      -0.625483    2.201842    0.611842
H       0.392786   -0.041320    0.932648
H      -1.963282   -0.297750   -0.825625
H      -2.969826   -1.227626    0.964493
H       0.331762   -0.202701   -2.124556
H       2.298301    0.867402   -1.450584
H       2.652096   -0.287104   -0.340495
