24

C       0.254175    1.540667   -0.150502
C       0.343196    0.013418   -0.089014
C       0.331323   -0.520442    1.351134
C       0.529617   -2.026904    1.445616
C      -0.576430   -2.861021    0.821880
N       1.922189   -2.483003    1.237964
C       1.288848   -2.661746    2.564390
C       1.992056   -1.955118    3.701245
O       3.263413   -2.539751    3.937624
H       1.094547    2.007495    0.375156
H       0.267851    1.899428   -1.184433
H      -0.668689    1.904730    0.315300
H      -0.487937   -0.417939   -0.659821
H       1.265175   -0.325831   -0.576329
H       1.124046   -0.014448    1.908944
H      -0.616307   -0.253166    1.838939
H      -0.648086   -2.687216   -0.256864
H      -0.400006   -3.929972    0.978456
H      -1.549578   -2.614858    1.261217
H       1.933311   -3.363918    0.729879
H       0.984022   -3.676424    2.819600
H       2.086786   -0.880261    3.497875
H       1.421658   -2.069174    4.629360
H       3.720743   -2.513435    3.088306
