17

O       0.155386    1.436497   -0.069474
C       0.047768    0.041755   -0.096857
C       0.739418   -0.532010   -1.367558
C      -0.345819   -1.284400   -2.095045
C      -1.489483   -1.338107   -1.411842
C      -1.371942   -0.676835   -0.071230
C      -0.881525   -1.591699    1.112087
C       0.312246   -0.641523    1.248922
O       0.989026   -0.287760    2.176001
H       0.375998    1.693025    0.834766
H       1.132013    0.313609   -1.942959
H       1.598061   -1.171697   -1.128623
H      -0.179700   -1.728853   -3.070171
H      -2.397418   -1.827263   -1.747226
H      -2.200875   -0.027133    0.215727
H      -1.506094   -1.658834    2.005670
H      -0.610243   -2.599144    0.785034
