20

C      -0.141456    1.412832   -0.275647
C      -0.123719   -0.109103   -0.147090
O       0.746092   -0.536496    0.898553
C      -1.535814   -0.691356    0.038816
C      -1.551826   -2.200990    0.138039
C      -2.807428   -2.975209   -0.153759
N      -1.680386   -3.032939   -1.052279
C      -1.708406   -2.628800   -2.371572
O      -2.635776   -2.791353   -3.128418
H       0.876625    1.795401   -0.385596
H      -0.728805    1.732330   -1.142290
H      -0.587285    1.872843    0.615657
H       0.317755   -0.537963   -1.055240
H       0.489346   -0.071005    1.702795
H      -1.962085   -0.276910    0.964229
H      -2.185956   -0.362060   -0.781208
H      -0.866722   -2.603400    0.880354
H      -3.024968   -3.884020    0.400578
H      -3.679390   -2.424773   -0.499536
H      -0.738153   -2.200096   -2.689104
