18

O      -0.074934    1.404315    0.008605
C       0.026928   -0.012352    0.020513
C      -1.410391   -0.554908    0.056866
C      -1.444772   -2.088319    0.086335
C      -0.465997   -2.697508   -0.881690
C       0.509993   -2.010138   -1.472159
C       0.755795   -0.542174   -1.234237
C       0.759292   -0.435990    1.240102
N       1.345763   -0.733549    2.190714
H       0.814724    1.776163   -0.001657
H      -1.931645   -0.126473    0.916643
H      -1.901987   -0.178975   -0.846613
H      -1.230325   -2.453764    1.100355
H      -2.460780   -2.431969   -0.141154
H      -0.573170   -3.759717   -1.085265
H       1.185148   -2.506908   -2.163342
H       0.397803    0.058745   -2.080778
H       1.831846   -0.345855   -1.148634
