14

N       0.024021   -3.731140   -0.053103
C       0.032048   -2.569006   -0.031517
C       0.038139   -1.205638   -0.003306
C       0.039437    0.004161    0.019513
C       0.044563    1.428595    0.050705
C       0.448621    2.242252    1.287808
C       1.638227    1.572068    1.967633
O       2.382473    1.558786    0.712542
C       1.327886    2.249702    0.071953
H      -0.753960    1.906684   -0.511981
H      -0.208018    2.989875    1.710247
H       2.137712    2.219238    2.694620
H       1.496765    0.568766    2.380155
H       1.569184    2.991042   -0.680918
