16

C      -0.067123   -1.229682   -0.004290
C      -0.060939   -0.028149    0.002525
C      -0.017317    1.428086    0.010475
C       1.423828    1.974045   -0.000878
C       1.443003    3.517422    0.007834
C       2.788259    4.064888   -0.002478
C       3.915559    4.499890   -0.011570
C       5.187096    4.996240   -0.021920
N       6.269339    5.418748   -0.030722
H      -0.085280   -2.291433   -0.010329
H      -0.563781    1.816555   -0.859300
H      -0.546120    1.806443    0.895489
H       1.966782    1.595901    0.870066
H       1.949101    1.606031   -0.886874
H       0.895000    3.902274   -0.862682
H       0.912643    3.892145    0.893561
