21

C      -0.034056    1.523136    0.170701
C      -0.015205    0.050954   -0.083069
C      -1.030723   -0.784334   -0.288143
C      -2.404193   -1.155267    0.211476
O      -1.867074   -2.456915    0.596927
C      -0.657382   -2.233785   -0.233179
C      -0.741038   -3.090571   -1.487678
C       0.737746   -2.198792    0.423615
C       1.267175   -0.789267    0.004131
H       0.510135    2.069711   -0.610620
H      -1.054634    1.914739    0.200109
H       0.459262    1.767711    1.120183
H      -2.792263   -0.586423    1.063617
H      -3.194863   -1.262974   -0.543053
H      -1.675022   -2.916145   -2.029171
H       0.095140   -2.877013   -2.162255
H      -0.697321   -4.150616   -1.215688
H       0.615553   -2.233435    1.510314
H       1.396814   -3.019268    0.123383
H       1.817260   -0.827508   -0.946327
H       1.960788   -0.371183    0.742513
