19

C      -0.011182    1.624349    0.051445
C       0.000694    0.094252    0.061990
C      -1.406036   -0.514266   -0.094898
C      -1.417195   -2.012198   -0.060723
C      -1.644316   -2.912161   -1.083607
N      -1.530664   -4.156749   -0.563941
N      -1.238843   -4.145863    0.761632
C      -1.172107   -2.856416    1.051845
O      -0.897174   -2.419103    2.301920
H       0.998547    2.031952    0.162128
H      -0.425810    2.012833   -0.885994
H      -0.621574    2.021156    0.870460
H       0.642608   -0.281234   -0.744471
H       0.438162   -0.269788    0.998600
H      -2.047106   -0.124051    0.706631
H      -1.848862   -0.167910   -1.036828
H      -1.878858   -2.751137   -2.124842
H      -1.645096   -5.038830   -1.029518
H      -0.781877   -3.200736    2.856554
