11

C      -0.048866    1.512995    0.009988
C       0.112489    0.021020    0.001295
O       1.126568   -0.602862   -0.010450
N      -1.159338   -0.704170    0.008794
N      -2.361667   -0.120954    0.022018
N      -3.211050   -1.084525    0.024726
N      -2.531959   -2.271108    0.013098
N      -1.269000   -2.035742    0.003329
H       0.944021    1.960634    0.003433
H      -0.621503    1.840829   -0.861922
H      -0.605998    1.832236    0.895039
