18

O      -0.179434    1.466380   -0.145530
C      -0.063954    0.065994   -0.039856
C       0.359208   -0.551456    1.342991
C      -0.991886   -1.276347    1.390342
C      -1.188597   -2.697835    1.861039
C      -1.071703   -2.825352    3.317275
N      -0.970000   -2.909325    4.465179
C      -2.099200   -0.265611    1.342880
C      -1.408971   -0.643376    0.057544
H       0.706086    1.843886   -0.151416
H       0.549955   -0.343629   -0.852833
H       1.217441   -1.223279    1.256893
H       0.541847    0.165486    2.148739
H      -2.176488   -3.065725    1.560338
H      -0.449296   -3.365162    1.400413
H      -3.102791   -0.664599    1.452958
H      -1.960528    0.725723    1.762682
H      -1.949565   -1.079923   -0.773834
