15

O       0.030882    1.424707    0.007261
C       0.009799    0.015782    0.002254
C      -1.415002   -0.472717    0.012630
C      -2.481901    0.366253    0.023021
C      -3.836878   -0.159238    0.032615
O      -4.876150    0.475818    0.042145
N      -3.864712   -1.564146    0.029498
N      -2.837020   -2.417660    0.019419
C      -1.648788   -1.887694    0.011268
H       0.946564    1.716485   -0.000880
H       0.514833   -0.397459   -0.887530
H       0.530067   -0.403998    0.880115
H      -2.361888    1.441145    0.024565
H      -4.781877   -1.991311    0.035747
H      -0.823014   -2.592058    0.003163
