23

C       0.185810    1.632908   -0.063077
C       0.117725    0.114830    0.012144
C       1.037084   -0.746982   -0.905771
C       1.303541   -1.730134    0.279136
C       0.789621   -3.144059    0.120124
C       2.669903   -1.510639    0.956256
O       3.748869   -1.349922    0.060613
C       2.108002   -0.263897    1.702540
C       0.669966   -0.648765    1.242425
H       1.208627    2.002773    0.063508
H      -0.170349    1.990081   -1.036040
H      -0.436273    2.099234    0.709595
H      -0.922583   -0.199201   -0.135484
H       0.554496   -1.191945   -1.779774
H       1.943507   -0.235368   -1.237955
H       1.375773   -3.688999   -0.630009
H       0.850370   -3.702139    1.061682
H      -0.256243   -3.155257   -0.207409
H       2.871864   -2.328660    1.665072
H       4.547056   -1.188278    0.573162
H       2.270644   -0.249013    2.782839
H       2.476412    0.676807    1.284867
H      -0.026856   -0.904631    2.043157
