17

C      -0.393318    1.543406   -0.064131
C       0.063503    0.092608   -0.074130
N       1.153477   -0.168579   -1.004383
C       1.949494   -1.219643   -0.574602
O       2.810374   -1.789913   -1.202184
N       1.553629   -1.502728    0.736058
C       0.696953   -0.435785    1.256491
C       1.438858    0.571142    2.020593
C       2.058407    1.363034    2.679400
H       0.441215    2.211981    0.156636
H      -0.812559    1.814607   -1.038261
H      -1.174017    1.695283    0.687840
H      -0.798415   -0.558457   -0.288660
H       1.017811   -0.074495   -1.998675
H       2.265885   -1.893800    1.334727
H      -0.091369   -0.850326    1.893853
H       2.610244    2.065812    3.254075
