23

C       0.092782    1.672722   -0.313185
C       0.252559    0.169997   -0.159888
C       1.500436   -0.637864   -0.414103
C       2.756250   -0.009143    0.172591
O       3.141281    1.218472   -0.422092
C       2.092608   -0.004322    1.601571
C       2.030863    1.273201    2.432652
C       0.826552   -0.626874    0.983422
C       0.047929   -1.717384    1.667959
H       1.024931    2.206838   -0.141229
H      -0.226615    1.903569   -1.335883
H      -0.676571    2.058462    0.365892
H      -0.611410   -0.362660   -0.559937
H       1.517262   -1.432380   -1.152319
H       3.596526   -0.715547    0.145122
H       3.955059    1.511266    0.000642
H       2.591664   -0.775907    2.201106
H       1.578214    2.106779    1.895002
H       1.447980    1.108162    3.345640
H       3.036358    1.582215    2.743414
H      -0.549601   -1.320195    2.498173
H      -0.643246   -2.209647    0.975792
H       0.713205   -2.485088    2.081348
