20

C      -0.097992    1.699271    0.433467
C      -0.092095    0.207052    0.080883
C       0.803627   -0.619688    1.039871
C       2.207468   -0.223173    0.974764
N       3.313038    0.107623    0.909152
C      -1.491914   -0.401751    0.035738
C      -2.362342   -0.301419    1.271048
C      -2.131725   -0.575505   -1.277734
O      -1.523628   -1.685409   -0.610743
H       0.911723    2.113182    0.365936
H      -0.740306    2.258793   -0.253409
H      -0.460895    1.872789    1.451898
H       0.331011    0.087058   -0.922282
H       0.465689   -0.511826    2.076917
H       0.724057   -1.680330    0.779251
H      -2.599030    0.740221    1.507684
H      -3.298433   -0.840588    1.109413
H      -1.871823   -0.742240    2.145124
H      -3.218160   -0.612535   -1.347173
H      -1.623116   -0.235499   -2.179006
