10

O       0.004351   -0.038814    0.002730
C      -0.039976    1.167808    0.006398
C       1.186904    1.977834    0.000689
N       2.173478    2.579525   -0.004042
C      -1.314546    1.908164    0.016838
N      -1.390374    3.217221    0.021067
O      -2.705222    3.507562    0.030447
N      -3.480653    2.367292    0.032268
C      -2.636662    1.377323    0.023976
H      -2.961400    0.349313    0.023175
