19

O       0.457303    1.031306   -0.566455
C       0.150728   -0.232586   -0.053395
C       0.250287   -0.369228    1.489496
O      -0.119290    0.882052    2.117645
C      -1.462255    0.394975    2.393458
C      -1.220640   -0.879444    1.570047
C      -1.336907   -0.657209    0.055297
C      -2.474327   -0.039119   -0.702269
C      -2.090360   -1.478667   -0.947366
H       0.206099    1.655597    0.130697
H       0.757768   -0.967477   -0.593358
H       1.128582   -0.826691    1.950253
H      -1.595228    0.225521    3.469034
H      -2.234878    1.082216    2.031727
H      -1.524245   -1.839449    1.985119
H      -3.402422    0.158614   -0.174873
H      -2.211921    0.699713   -1.452358
H      -1.587300   -1.727646   -1.876989
H      -2.756696   -2.252748   -0.579129
