22

C       0.176178    1.290409   -0.910851
C       0.013454    0.004074   -0.125461
C       1.209588   -0.859001    0.045419
N       0.695805   -0.087463    1.193801
C      -1.380622   -0.638011   -0.116857
C      -2.288020   -0.000319    0.955215
O      -1.913880   -0.363991    2.264034
C      -2.054077   -0.605499   -1.494385
O      -1.227300   -1.078955   -2.548692
H       1.186147    1.693941   -0.783306
H       0.017481    1.108553   -1.976961
H      -0.533712    2.057093   -0.581112
H       1.099855   -1.936439    0.135527
H       2.144796   -0.537619   -0.404875
H       1.272169    0.735573    1.347852
H      -1.264047   -1.688985    0.182723
H      -2.295813    1.096890    0.823058
H      -3.321954   -0.338910    0.809993
H      -0.943039   -0.321596    2.283880
H      -2.997411   -1.170135   -1.444836
H      -2.312979    0.422814   -1.769031
H      -0.989095   -1.990269   -2.350294
