18

C      -0.007062    1.469436   -0.011546
N       0.002417    0.021697    0.039015
C       0.011731   -0.801613   -1.089281
N       0.011629   -0.345158   -2.274749
C       0.020618   -2.214608   -0.502280
N       0.015982   -2.047593    0.952595
C       0.006007   -0.783586    1.165501
C      -0.001488   -0.225050    2.560705
O       0.004746   -1.251033    3.512153
H       0.885017    1.891405    0.463290
H      -0.017269    1.751150   -1.065354
H      -0.896657    1.879375    0.478001
H       0.018722   -1.100866   -2.956884
H      -0.856261   -2.784302   -0.831331
H       0.907159   -2.771552   -0.827224
H       0.874730    0.432434    2.687275
H      -0.888836    0.418110    2.683458
H       0.011931   -2.078306    3.004455
