24

C       0.591545    1.623764   -0.061140
C      -0.328026    0.545800   -0.648697
C       0.389107   -0.301877   -1.680760
C       1.097048   -1.579729   -1.359871
C       1.172812   -2.191950    0.022719
N      -0.134073   -1.580612   -2.172644
C      -1.373067   -2.135082   -1.629366
C      -1.635210   -3.484097   -2.300622
O      -0.551981   -4.383775   -2.123838
H       1.435364    1.175359    0.473198
H       1.002048    2.263632   -0.849802
H       0.050236    2.265580    0.640359
H      -0.736461   -0.070169    0.157343
H      -1.190778    1.026390   -1.129046
H       0.817815    0.304119   -2.481535
H       1.977643   -1.807237   -1.962007
H       0.447735   -1.778351    0.726454
H       1.001229   -3.272354   -0.035692
H       2.170233   -2.026702    0.442400
H      -1.360205   -2.275882   -0.540062
H      -2.198431   -1.451191   -1.863656
H      -2.513479   -3.961314   -1.852913
H      -1.841528   -3.323399   -3.369165
H       0.197475   -3.983840   -2.578853
