13

N      -0.028545    1.376642   -0.150982
C       0.022961    0.001780   -0.062858
N      -1.157713   -0.631419   -0.037493
C      -1.143546   -1.965555   -0.008344
C       0.005753   -2.744592    0.006064
C       1.214015   -2.055641   -0.013448
F       2.359008   -2.737785    0.002263
C       1.254467   -0.677343   -0.050182
H       0.763520    1.893792    0.195271
H      -0.927445    1.767074    0.088327
H      -2.118810   -2.446338    0.009129
H      -0.023821   -3.825348    0.035458
H       2.202375   -0.153833   -0.075380
