21

C      -0.022471    1.515211   -0.069232
C       0.099719    0.001899   -0.192161
O       1.183515   -0.501037   -0.406611
C      -1.171926   -0.801862   -0.083846
C      -2.307611   -0.159470    0.706140
C      -1.678569   -1.585725   -1.297420
C      -0.553329   -2.239481   -2.111586
C      -0.116161   -3.032512   -0.838388
C      -1.217697   -2.318175   -0.041808
H       0.949655    1.962846   -0.278169
H      -0.769771    1.907495   -0.767410
H      -0.344857    1.801725    0.937442
H      -2.622606    0.796706    0.277846
H      -3.181720   -0.817198    0.712083
H      -2.022145    0.015688    1.749206
H      -2.684084   -1.392164   -1.655899
H      -0.943248   -2.888153   -2.899034
H       0.191426   -1.566934   -2.542471
H      -0.340249   -4.097944   -0.935846
H       0.907833   -2.899493   -0.497166
H      -1.824809   -2.785321    0.726419
