20

C      -0.118158    1.520916   -0.356641
C       0.038400    0.030294   -0.055604
C       0.880633   -0.708399   -1.097392
O       2.229531   -0.250243   -1.051917
C       2.828725    0.098223   -2.214160
N       4.042122    0.417732   -2.237302
C       4.608159    0.804394   -3.512662
C       0.874404   -2.221014   -0.869164
O      -0.120633   -2.852940   -0.633960
H       0.855107    2.018258   -0.395016
H      -0.620611    1.682544   -1.317093
H      -0.715439    2.010583    0.417621
H       0.507446   -0.111695    0.924716
H      -0.933279   -0.471780   -0.018538
H       0.459032   -0.533912   -2.100696
H       2.159503    0.081277   -3.089622
H       3.893653    0.767323   -4.351397
H       5.004685    1.823645   -3.444228
H       5.453800    0.149886   -3.751770
H       1.879531   -2.691933   -0.943100
