17

O       0.691660    0.277401   -0.976462
C      -0.233558    0.004291    0.073813
C      -1.320847   -0.866627   -0.386590
C      -2.168739   -1.618503   -0.787680
C       0.443744   -0.600302    1.294396
C       1.261356    0.248939    2.235901
O       1.260696    1.632451    1.982335
C      -0.062499   -0.313404    2.700956
O      -1.099756    0.596869    2.893179
H       0.940407   -0.567399   -1.367482
H      -0.647169    0.979119    0.342992
H      -2.938042   -2.261329   -1.138093
H       0.826964   -1.604012    1.128251
H       2.202539   -0.149363    2.608171
H       1.612727    2.074965    2.762500
H      -0.093470   -1.128747    3.417239
H      -0.728494    1.469312    2.697878
