20

C       0.177536    1.090479   -0.762078
C      -0.105164    0.126761    0.370569
O       0.570476    0.092234    1.375739
C      -1.318881   -0.784123    0.256431
C      -2.189883   -0.776342    1.498691
N      -1.927173   -0.888127   -1.080077
C      -1.222158   -2.053038   -0.530718
C       0.022516   -2.537130   -1.226852
O      -0.382195   -3.500466   -2.188232
H       1.125056    1.598842   -0.580016
H       0.173988    0.590986   -1.732421
H      -0.633604    1.827922   -0.805949
H      -2.661296    0.202987    1.639316
H      -2.980451   -1.529359    1.425904
H      -1.582225   -0.984772    2.382177
H      -2.934362   -1.009361   -1.007816
H      -1.832220   -2.874254   -0.155840
H       0.545261   -1.693057   -1.697238
H       0.700471   -2.977747   -0.478421
H       0.407149   -3.858220   -2.605072
