21

C      -0.006238    1.506747    0.031727
C       0.010617   -0.028554    0.032011
C      -1.424414   -0.551971   -0.096172
C       0.972508   -0.609444   -1.082969
C       2.043871   -1.303612   -0.212612
C       1.156160   -2.035800    0.848029
C       0.750223   -0.587956    1.285890
C       2.212091   -0.268356    0.916034
O       3.111297    0.361561    1.388419
H       1.002730    1.923887    0.106770
H      -0.461351    1.888998   -0.888505
H      -0.588651    1.893247    0.875656
H      -1.863873   -0.226145   -1.046064
H      -1.476687   -1.643941   -0.069238
H      -2.056741   -0.166046    0.711234
H       0.458883   -1.325818   -1.731371
H       1.393336    0.176743   -1.715996
H       2.891290   -1.776308   -0.705133
H       0.365313   -2.677678    0.456467
H       1.735400   -2.564680    1.606967
H       0.331616   -0.359952    2.264861
