20

C      -0.011492    1.496960    0.114754
C       0.011244    0.010557   -0.027435
C       0.006829   -0.799860   -1.148393
C      -0.031595   -0.398862   -2.591571
C       0.046147   -2.146825   -0.672335
O       0.042660   -3.289422   -1.431270
C       0.073449   -2.143817    0.700816
C       0.113627   -3.269717    1.675547
N       0.048430   -0.809957    1.073309
H       0.896434    1.883007    0.596702
H      -0.085655    1.974407   -0.864678
H      -0.866738    1.841799    0.710252
H       0.863119   -0.726641   -3.139456
H      -0.900918   -0.821096   -3.113845
H      -0.089408    0.686691   -2.707300
H       0.133710   -3.038353   -2.354621
H       0.983072   -3.214689    2.344119
H      -0.782216   -3.313677    2.309608
H       0.176411   -4.213462    1.128952
H       0.061549   -0.487246    2.024743
