22

C      -0.054229    1.595021   -0.051426
C       0.002867    0.073907    0.107282
C      -1.358352   -0.593549   -0.083543
C      -1.333715   -2.111074    0.028110
O      -0.297756   -2.731536    0.119301
C      -2.693035   -2.820107    0.047288
C      -2.631518   -4.148097   -0.714623
C      -3.102709   -3.034547    1.519185
H       0.933548    2.044245    0.089967
H      -0.408502    1.879643   -1.048778
H      -0.732676    2.049023    0.679958
H       0.710537   -0.356947   -0.608414
H       0.391684   -0.186868    1.098040
H      -2.098519   -0.204495    0.630556
H      -1.776147   -0.352216   -1.073479
H      -3.433343   -2.158309   -0.419855
H      -1.839891   -4.779639   -0.304004
H      -3.583906   -4.681740   -0.638351
H      -2.414554   -3.989783   -1.775604
H      -3.157747   -2.090470    2.071099
H      -4.085448   -3.512620    1.574579
H      -2.377626   -3.680474    2.024038
