19

C       0.285763    1.643051   -0.216459
C       0.013261    0.155609   -0.001665
O      -1.375275   -0.031946    0.126046
C       0.672521   -0.697462   -1.109702
O       2.045839   -0.774070   -0.741863
C       2.120743   -0.891409    0.678105
C       0.778048   -0.411631    1.208155
C       0.441361   -0.103016    2.594065
O       0.013694   -1.341518    1.997450
H       1.345245    1.816615   -0.423925
H      -0.298480    1.998046   -1.070407
H      -0.006693    2.224342    0.662132
H      -1.490019   -0.789104    0.719505
H       0.199693   -1.692122   -1.137271
H       0.616351   -0.249068   -2.104244
H       2.283352   -1.932977    0.989182
H       2.963684   -0.285067    1.025475
H       1.191314   -0.206550    3.376576
H      -0.358661    0.605471    2.803285
