21

C       0.020167    1.576471    0.033488
C       0.125306    0.053819    0.012351
C       0.892794   -0.542398   -1.196819
C       1.542019   -1.776389   -0.621059
C       1.464026   -1.819951    0.710656
C       2.016503   -2.863191    1.625561
O       2.728026   -3.833828    0.877430
C       0.813647   -0.568353    1.263609
O       1.781915    0.273592    1.901310
H       1.008250    2.041933    0.096435
H      -0.470845    1.943825   -0.873730
H      -0.558115    1.924122    0.895307
H      -0.887017   -0.368193   -0.013213
H       0.224555   -0.768595   -2.036001
H       1.645523    0.155240   -1.593544
H       2.030615   -2.530786   -1.225884
H       2.660902   -2.370829    2.373218
H       1.186243   -3.323241    2.191459
H       3.063824   -4.494349    1.489664
H       0.083830   -0.767685    2.056592
H       2.535753    0.342578    1.304345
