17

C       0.041397    1.472255   -0.106701
O      -0.006075    0.069225    0.120109
C      -1.291970   -0.540869    0.043641
C      -2.139164   -0.219046    1.331052
N      -1.492187   -0.547785    2.580717
C      -2.044949   -0.174494   -1.161929
C      -2.703929    0.157692   -2.109751
C      -1.022566   -1.996763    0.028992
N      -0.857440   -3.138745    0.071678
H       1.097404    1.741499   -0.047810
H      -0.346529    1.733831   -1.097205
H      -0.511101    2.038458    0.654021
H      -2.365775    0.851458    1.299419
H      -3.091326   -0.750676    1.251415
H      -1.390639   -1.554217    2.675209
H      -0.554799   -0.156991    2.598531
H      -3.277866    0.433580   -2.960793
