21

C       0.016942    1.565847    0.011838
C       0.019829    0.036151   -0.066738
C      -1.382613   -0.579961   -0.053281
N      -2.141499   -0.199272   -1.248258
C      -3.468601   -0.796403   -1.241863
C      -3.279861   -2.296516   -1.354223
O      -2.434430   -2.808097   -0.314365
C      -1.335435   -2.099551    0.078205
N      -0.363482   -2.675614    0.648611
H       1.040190    1.947532    0.076384
H      -0.437995    2.030436   -0.870322
H      -0.523793    1.921078    0.896881
H       0.532896   -0.294792   -0.976043
H       0.572473   -0.384108    0.775628
H      -1.901653   -0.236199    0.867172
H      -2.209095    0.810709   -1.290599
H      -4.049135   -0.563759   -0.329105
H      -4.040172   -0.439299   -2.104844
H      -4.225747   -2.835054   -1.255366
H      -2.829072   -2.538789   -2.324534
H      -0.536673   -3.681918    0.694358
