18

C       0.081709    1.598928    0.099021
C       0.105961    0.067563    0.026328
C       0.723407   -0.472166   -1.261568
O       0.012986   -0.105778   -2.415935
C       2.273824   -0.363285   -1.342688
O       2.420411   -1.782421   -1.097550
C       1.012500   -2.005566   -1.277753
C       0.421495   -2.846797   -0.238524
N      -0.066341   -3.496621    0.583233
H       1.084269    2.026549   -0.007229
H      -0.557415    2.045779   -0.672287
H      -0.318770    1.927474    1.061507
H       0.673039   -0.329824    0.874813
H      -0.911064   -0.330725    0.116874
H      -0.314985    0.792848   -2.310312
H       2.626539   -0.081900   -2.341303
H       2.783432    0.231186   -0.577672
H       0.783724   -2.431008   -2.263218
