21

O       0.141784    1.364703   -0.121718
C       0.039075   -0.039730    0.012033
C       0.530287   -0.615290    1.359375
C      -0.680164   -0.343920    2.305093
C      -1.382675   -1.367823    1.366881
C       0.002198   -2.078416    1.282780
C      -1.405205   -0.608680    0.044516
C      -2.583030    0.182768   -0.446786
C      -2.144069   -1.069571   -1.175688
H      -0.400248    1.768099    0.564779
H       0.619432   -0.439764   -0.825345
H       1.555657   -0.376578    1.641525
H      -0.513866   -0.731961    3.312512
H      -1.094268    0.668492    2.366511
H      -2.293620   -1.893504    1.656858
H       0.223222   -2.661536    0.383786
H       0.240919   -2.656690    2.178362
H      -3.505690    0.144894    0.124032
H      -2.380837    1.137973   -0.920084
H      -1.663925   -0.951162   -2.142195
H      -2.771773   -1.952082   -1.095690
