20

O      -0.055144    1.439907    0.007310
C       0.038957    0.024562    0.011527
C      -1.375155   -0.545726    0.009115
C      -1.380836   -2.075162   -0.060775
C      -2.817376   -2.580623   -0.073223
O      -3.600781   -2.098579    1.027006
C      -3.517903   -0.774445    1.373186
N      -4.508368   -0.165118    1.873265
C      -2.165348   -0.112983    1.253106
H       0.831438    1.804970    0.076640
H       0.583001   -0.341832   -0.874427
H       0.578625   -0.338353    0.902663
H      -1.881458   -0.152080   -0.883610
H      -0.871739   -2.437365   -0.961651
H      -0.850476   -2.492354    0.805258
H      -3.310162   -2.283560   -1.010426
H      -2.862082   -3.670184   -0.001223
H      -5.316034   -0.791955    1.905985
H      -1.587667   -0.396892    2.145567
H      -2.303035    0.966643    1.290350
