14

C       0.014101    1.377361    0.007168
O      -0.042127   -0.054989    0.003753
C      -1.243313   -0.614343    0.011479
N      -2.312613    0.135482    0.021289
C      -3.544823   -0.472248    0.028333
O      -4.618757    0.078348    0.037620
N      -3.489852   -1.900872    0.023605
C      -2.322290   -2.567821    0.013094
N      -1.163349   -1.987534    0.006505
H       1.076427    1.620855   -0.000524
H      -0.483953    1.784805   -0.875464
H      -0.469987    1.779993    0.899726
H      -4.377925   -2.382144    0.028571
H      -2.377743   -3.654270    0.010181
