13

N      -0.051216    1.317315    0.008601
C      -0.003494   -0.026951    0.000753
N      -1.174948   -0.693459    0.003216
C      -1.050325   -2.016287   -0.004916
C      -2.361264   -2.767816   -0.002161
O      -2.456507   -3.964303   -0.009008
N       0.090334   -2.710205   -0.014881
C       1.177734   -1.935497   -0.016290
N       1.210981   -0.609471   -0.008986
H       0.805387    1.841835    0.006946
H      -0.941368    1.782361    0.015892
H      -3.237816   -2.087301    0.005718
H       2.139868   -2.443592   -0.024251
