16

C      -0.186567    1.407873    0.167473
N      -0.137891   -0.040474    0.151872
C       0.681743   -0.672014    0.883301
N       0.742320   -2.071780    0.833871
C       1.253439   -2.631835    1.863956
N       1.773002   -1.934652    2.925150
C       2.374653   -2.573101    4.083651
N       2.110779   -0.605512    2.731817
N       1.624919   -0.007648    1.749316
H       0.575779    1.892663    0.785441
H      -0.093852    1.767347   -0.863993
H      -1.178634    1.721800    0.514877
H       1.340342   -3.716754    1.923692
H       3.035545   -3.392813    3.783763
H       2.958890   -1.814909    4.605308
H       1.603007   -2.960705    4.755114
