23

C       0.261024    1.075507   -0.223538
O      -0.388173    0.007192    0.434814
C       0.451809   -0.670479    1.321461
C       0.061159   -1.994341    1.868648
C      -0.623736   -2.841415    0.790403
C       0.672204   -2.767029   -0.080872
C       0.579078   -2.327884   -1.538525
C       1.328426   -1.845211    0.968916
C       2.788821   -1.904018    1.324136
H       1.099387    0.725922   -0.842953
H      -0.479496    1.559025   -0.865297
H       0.645729    1.816081    0.494442
H       0.916366   -0.005452    2.055090
H      -0.007818   -2.169087    2.937006
H      -0.860236   -3.855502    1.118459
H      -1.518915   -2.391457    0.352926
H       1.179503   -3.737776   -0.033664
H      -0.004294   -1.410292   -1.636692
H       1.573779   -2.152999   -1.965047
H       0.095573   -3.102149   -2.145303
H       3.414305   -1.530609    0.503389
H       3.012379   -1.297393    2.208264
H       3.107337   -2.931552    1.537328
