21

C      -0.049900    1.469810    0.010879
C       0.008089   -0.042152    0.033860
C       1.324741   -0.720497   -0.259526
C       0.763022   -0.722004    1.151408
C       0.552026   -2.250719    1.316080
C      -0.188036   -2.777706    2.512558
C       1.908186   -2.816638    0.791823
C       1.280832   -2.245049   -0.504804
O      -0.024209   -2.629229    0.019538
H       0.879286    1.914868    0.383094
H      -0.211360    1.841619   -1.006910
H      -0.869394    1.842285    0.635326
H      -0.883667   -0.546085   -0.322358
H       2.196209   -0.146409   -0.552554
H       1.193970   -0.148427    1.964304
H      -1.195176   -2.350788    2.556307
H      -0.274083   -3.866912    2.472224
H       0.336730   -2.503187    3.433658
H       2.839852   -2.381285    1.163953
H       1.933931   -3.908411    0.801915
H       1.489558   -2.635764   -1.500668
