20

C       0.030081    1.613563   -0.050889
C       0.023377    0.087087    0.067688
C      -1.393702   -0.533568    0.048723
C      -1.362003   -2.060570   -0.094409
N      -0.868521   -2.679593    1.132026
C      -1.372002   -2.226007    2.313287
C      -2.028511   -1.045003    2.444829
C      -2.163024   -0.128116    1.321324
O      -2.767448    0.930918    1.379777
H       1.053298    1.999686   -0.005340
H      -0.407619    1.934702   -1.002376
H      -0.552310    2.078460    0.747804
H       0.594994   -0.346443   -0.763822
H       0.539050   -0.220125    0.985376
H      -1.943921   -0.121241   -0.803512
H      -2.379416   -2.425413   -0.311015
H      -0.713764   -2.357415   -0.924980
H      -0.619137   -3.653906    1.083516
H      -1.197828   -2.873807    3.168019
H      -2.412786   -0.734808    3.407885
