19

C      -0.029202    1.517784   -0.014913
C       1.303947    0.807368   -0.035596
C       0.013254    0.008051   -0.051126
C       0.148875   -0.703140   -1.394042
C       1.664021   -1.188838   -1.430226
C       1.896843   -1.536392   -2.891260
C       1.287565   -0.540010   -3.538735
C       0.731124    0.336852   -2.423907
C       1.903512    0.383497   -1.372932
H      -0.312676    1.957028    0.936821
H      -0.371491    2.087130   -0.871067
H       1.943581    0.849005    0.838575
H      -0.324131   -0.555367    0.811296
H      -0.645830   -1.380976   -1.711776
H       2.056726   -1.838193   -0.645972
H       2.431784   -2.392689   -3.276694
H       1.185843   -0.355172   -4.598673
H       0.180556    1.231477   -2.712049
H       2.869789    0.796221   -1.669480
