14

C       0.294139    0.793583    0.947342
C      -0.121540    0.328323   -0.460417
C      -1.531864   -0.144419   -0.513053
N      -1.983873   -1.349589   -0.697438
C      -3.342804   -1.156084   -0.621297
N      -3.721179    0.081996   -0.403786
O      -2.514552    0.759164   -0.331209
C      -4.293911   -2.210198   -0.765587
N      -5.054672   -3.071485   -0.883469
H       1.332101    1.134662    0.933111
H      -0.334186    1.619854    1.289402
H       0.211766   -0.023304    1.669373
H      -0.004481    1.151546   -1.173715
H       0.505948   -0.498654   -0.799036
