16

O      -0.238987    0.118678    0.350438
C      -0.040246    1.269232    0.039026
C       1.293506    1.900097   -0.035450
C       1.370298    3.404173    0.168142
C       1.541889    2.857820   -1.214481
N       2.826425    2.866467   -1.830997
C       3.761976    2.216829   -1.276155
O       3.730577    1.460619   -0.159903
C       2.456835    1.006349    0.335088
H      -0.881012    1.949515   -0.231325
H       0.447421    3.923112    0.407362
H       2.253324    3.785955    0.668794
H       0.725220    3.009651   -1.912732
H       4.769811    2.242259   -1.684473
H       2.578203    0.920920    1.418265
H       2.269230    0.004597   -0.063575
