16

C      -0.011206   -1.204120   -0.080023
C       0.040797   -0.005711    0.001045
C       0.068896    1.420256    0.142139
O       0.280016    2.207694   -1.040985
C       1.278401    2.269145   -0.027577
C       1.195963    3.471944    0.906860
C      -0.143215    3.336134    1.633145
N      -1.329122    3.412613    0.762725
C      -0.824278    2.092490    1.179737
H      -0.048925   -2.261802   -0.167740
H       2.245700    1.855839   -0.305668
H       2.019117    3.425819    1.628438
H       1.277835    4.414645    0.357186
H      -0.222429    3.689313    2.656637
H      -2.144493    3.644436    1.326077
H      -1.412847    1.461997    1.835237
