16

N       0.620397    0.307145   -0.533965
C      -0.304191    0.234687    0.458339
O      -0.319409    0.949517    1.439206
C      -1.423734   -0.798558    0.222655
C      -0.982739   -2.172068   -0.267248
O      -0.160096   -2.321063   -1.140845
C      -1.670555   -3.354391    0.424777
C      -1.337206   -4.659352   -0.116411
C      -1.066478   -5.740552   -0.561739
H       1.419250    0.900023   -0.373505
H       0.690399   -0.457764   -1.191397
H      -2.000972   -0.862149    1.145770
H      -2.086591   -0.392301   -0.553513
H      -1.409611   -3.291791    1.491616
H      -2.754790   -3.176881    0.390892
H      -0.823499   -6.695169   -0.958546
