19

C      -0.022874    1.570901   -0.112683
C       1.503032    1.560569    0.077850
O       2.060273    0.772778   -0.994501
C       1.534168    0.090252    0.138734
C       2.326684   -0.946309    0.871765
O       1.613408   -1.387162    2.019096
C       0.281336   -1.791477    1.726745
C      -0.579923   -0.601531    1.284704
C       0.004229    0.003408    0.000963
H      -0.563297    2.043398    0.711450
H      -0.361814    1.991314   -1.062250
H       2.151826    2.307753    0.520368
H       2.525368   -1.795980    0.194860
H       3.288445   -0.557399    1.217730
H       0.282618   -2.576107    0.950510
H      -0.103677   -2.233450    2.650085
H      -1.621964   -0.910584    1.146430
H      -0.562364    0.138010    2.094046
H      -0.332866   -0.542514   -0.885632
