18

N      -0.021484   -1.096636   -0.402730
C       0.020167    0.020053   -0.109679
C       0.097734    1.431485    0.252542
C       1.477676    2.027724   -0.050204
O       1.427648    3.381090    0.341741
C       2.639175    4.067476    0.161419
C       2.962732    4.606265   -1.254484
O       3.012114    5.959073   -0.758024
C       2.553134    5.551014    0.547284
H      -0.666986    1.991056   -0.295960
H      -0.120632    1.547182    1.319189
H       2.257190    1.484509    0.505784
H       1.703119    1.927813   -1.122343
H       3.467438    3.518196    0.628883
H       3.912487    4.299362   -1.706464
H       2.145004    4.454400   -1.971943
H       1.524156    5.872338    0.751124
H       3.215441    5.898747    1.347058
