21

C      -0.029325    1.546632   -0.114653
C      -0.042121    0.014840   -0.014049
C       0.412268   -0.717921   -1.311760
C       1.823180   -1.239963   -1.001812
O       2.763772   -0.161302   -1.145309
C       3.136561    0.365923    0.122762
C       2.356538   -0.405484    1.164436
C       0.846941   -0.593684    1.083251
C       1.786125   -1.617640    0.486468
H       0.928157    1.920460   -0.485376
H      -0.804979    1.892005   -0.806688
H      -0.222917    2.009571    0.858845
H      -1.071472   -0.284229    0.216092
H      -0.250115   -1.568410   -1.510632
H       0.410941   -0.076829   -2.197732
H       2.139859   -2.053519   -1.660955
H       4.214801    0.214805    0.282745
H       2.949068    1.446857    0.138105
H       2.795122   -0.487928    2.153381
H       0.375628   -0.795974    2.040070
H       1.910977   -2.637049    0.828289
