17

O       0.287783    1.330897    0.155504
C       0.136992   -0.046151   -0.030871
C       0.014383   -0.653738   -1.464389
C      -0.540685   -1.918504   -0.771168
C      -1.252940   -0.736356   -0.040472
C      -1.489006   -0.109600   -1.451104
C      -1.345121   -0.761828    1.487981
C       0.240958   -0.678634    1.436704
O       1.108168   -0.999289    2.180910
H       0.028093    1.794009   -0.648954
H       0.708302   -0.610081   -2.308761
H      -1.191666   -2.558084   -1.370854
H       0.174391   -2.511875   -0.194900
H      -1.644223    0.971061   -1.499208
H      -2.182912   -0.623216   -2.121744
H      -1.731283    0.165911    1.921566
H      -1.786834   -1.622162    1.994643
