20

N       0.005280    1.318788   -0.276738
C       0.062473    0.019036    0.139250
O       1.090167   -0.485450    0.545859
C      -1.283799   -0.725305    0.088204
C      -1.066102   -2.231277   -0.120319
C      -2.327502   -3.033989    0.214046
C      -2.737680   -2.829229    1.678851
C      -2.677179   -1.378288    2.076345
C      -2.051857   -0.441577    1.365575
H       0.847359    1.869681   -0.243482
H      -0.826414    1.726096   -0.665326
H      -1.857296   -0.313928   -0.757612
H      -0.749357   -2.419627   -1.151695
H      -0.236442   -2.539068    0.523919
H      -3.150925   -2.714154   -0.438230
H      -2.162675   -4.097525    0.011793
H      -3.749008   -3.218400    1.851505
H      -2.082269   -3.414085    2.341363
H      -3.182201   -1.095868    2.997474
H      -2.061494    0.591782    1.704725
