13

O       0.344025   -0.091766   -0.158429
C       0.516981    1.064318   -0.377026
O       0.425834    2.006981    0.611078
C       0.735735    3.298363    0.276441
C       1.861016    3.867462   -0.265126
C       1.598819    5.267961   -0.346701
C       0.338865    5.491585    0.150646
N      -0.186996    4.275628    0.525246
H       0.766876    1.517837   -1.351848
H       2.764275    3.348801   -0.543665
H       2.271890    6.022137   -0.723276
H      -0.225894    6.400254    0.277303
H      -1.089544    4.111040    0.936638
