18

O      -0.200327    1.164289    0.838621
N      -0.051918   -0.200546    0.520996
C      -1.041657   -0.617613   -0.148180
C      -2.363955   -0.046701   -0.617348
C      -2.824595   -1.512177   -0.871442
C      -4.001769   -2.129081   -0.087829
C      -4.595056   -2.406245   -1.482457
O      -3.449001   -1.809720   -2.128493
C      -1.360724   -2.005622   -0.658249
H       0.597179    1.339921    1.349355
H      -2.929340    0.551329    0.102134
H      -2.277993    0.513202   -1.555021
H      -3.753709   -3.013129    0.502143
H      -4.563273   -1.428067    0.532207
H      -4.711137   -3.462035   -1.753042
H      -5.521674   -1.872652   -1.723324
H      -0.885429   -2.225567   -1.620613
H      -1.200937   -2.847198    0.020735
