14

N      -0.028910    1.375685    0.128006
C       0.032988   -0.012067    0.046816
N      -1.129647   -0.658432    0.044131
N      -1.160600   -1.990251    0.037446
C      -0.029246   -2.689924    0.033368
N      -0.155566   -4.074037    0.100682
C       1.234693   -2.064529    0.019928
C       1.266513   -0.695334    0.026802
H       0.683538    1.870943   -0.388359
H      -0.959019    1.720791   -0.069938
H      -1.100634   -4.373592   -0.100542
H       0.533296   -4.596685   -0.420659
H       2.145368   -2.654462    0.016971
H       2.203609   -0.148341    0.029549
