20

C       0.041884    1.677690   -0.020121
C       0.309305    0.175555    0.047534
N       0.992205   -0.272267   -1.161716
C       1.709448   -1.303791   -1.123345
C       2.491965   -1.881899   -2.295593
C       3.345287   -2.968652   -1.672034
C       4.274188   -2.557388   -0.542617
C       2.891431   -3.058249   -0.242960
O       1.903773   -2.078384    0.001861
H       0.981315    2.236409   -0.077880
H      -0.547819    1.923593   -0.908067
H      -0.504119    2.016033    0.866528
H       0.881990   -0.072988    0.951405
H      -0.645872   -0.362358    0.131038
H       1.794506   -2.300137   -3.028968
H       3.056955   -1.092692   -2.797751
H       3.578060   -3.856365   -2.246335
H       5.106192   -3.216056   -0.318771
H       4.472902   -1.501431   -0.386802
H       2.705426   -3.977348    0.297786
