19

C       0.209575    1.581982   -0.233492
C      -0.022019    0.101083    0.100479
C       0.460087   -0.765311   -1.065237
O      -0.044779   -0.903467   -2.139917
O       1.640428   -1.364612   -0.733681
C       2.041024   -0.987197    0.585450
C       0.767800   -0.473319    1.290825
C       1.059435    0.466763    2.455213
O      -0.022153   -1.582288    1.724986
H       1.271455    1.810916   -0.374186
H      -0.308869    1.827852   -1.163544
H      -0.176793    2.229217    0.558113
H      -1.087949   -0.080554    0.251453
H       2.460426   -1.867016    1.082252
H       2.817294   -0.214793    0.521127
H       1.616209    1.353315    2.140977
H       0.125055    0.786122    2.924626
H       1.658667   -0.048231    3.216198
H       0.463594   -2.051334    2.412350
