16

C      -0.012361    1.344007    0.027741
O       0.075100   -0.086446   -0.024522
C       0.699632   -0.586658   -1.104925
O       1.176915    0.091966   -1.980776
C       0.674523   -2.108552   -1.103842
C      -0.706446   -2.574892   -1.615036
N       1.813711   -2.579300   -1.885605
H       0.985583    1.788939    0.042031
H      -0.556118    1.729385   -0.838472
H      -0.546931    1.574915    0.949033
H       0.783216   -2.438975   -0.064071
H      -0.876562   -2.219667   -2.636732
H      -0.747967   -3.668814   -1.619992
H      -1.514700   -2.207227   -0.975499
H       1.636322   -3.517053   -2.230174
H       1.922410   -1.970066   -2.692041
