23

C      -0.127579    1.662471   -0.299536
C      -0.012067    0.158989   -0.077025
C       1.010818   -0.566782   -0.993983
C       1.836802   -0.744024    0.291728
O       0.817365   -0.118577    1.095841
C      -1.377107   -0.499156    0.050346
C      -1.471966   -1.995533    0.465014
C      -2.693259   -1.632372    1.351648
C      -2.248719   -0.147496    1.292411
H       0.862889    2.122650   -0.361919
H      -0.667167    1.876404   -1.228971
H      -0.668793    2.132573    0.527330
H       0.644710   -1.494231   -1.437831
H       1.461737    0.051196   -1.772493
H       2.026797   -1.778418    0.602353
H       2.781905   -0.187381    0.327087
H      -1.937197   -0.321972   -0.876156
H      -1.615903   -2.739116   -0.322927
H      -0.611061   -2.279219    1.076179
H      -3.638796   -1.793329    0.825426
H      -2.759880   -2.101650    2.335916
H      -1.611652    0.114110    2.141907
H      -3.022291    0.615554    1.177634
