19

C       0.387898    1.280795    0.060053
C      -0.075675   -0.188470   -0.019271
C       0.509355   -0.930840   -1.272107
C       1.508945   -1.934180   -0.721125
C       2.658525   -1.438636    0.130061
C       1.377106   -1.935315    0.771737
N       0.349363   -0.994794    1.142817
C      -1.557084   -0.186299   -0.080787
N      -2.711348   -0.165651   -0.138335
H       1.479244    1.335895    0.048669
H       0.001509    1.854809   -0.787076
H       0.021711    1.751104    0.977970
H      -0.285216   -1.456476   -1.806427
H       0.950167   -0.211062   -1.968411
H       1.639770   -2.860585   -1.267357
H       3.531864   -2.079927    0.192225
H       2.882855   -0.377816    0.158997
H       1.391738   -2.856066    1.345740
H       0.596232   -0.409103    1.931483
