18

O      -0.013487    0.176508    0.838352
C      -0.026151    1.242002    0.244723
C      -1.336915    1.884904   -0.028861
C      -1.669262    2.890248   -0.848204
C      -0.805026    3.704126   -1.762293
C       0.505558    3.060022   -2.237001
N       1.535294    2.749627   -1.252711
C       1.540397    3.323805    0.070268
C       1.293035    1.851214   -0.129993
H      -2.127207    1.392166    0.531621
H      -2.723524    3.162937   -0.870912
H      -1.390036    3.957787   -2.655934
H      -0.591332    4.673910   -1.288855
H       0.281793    2.130257   -2.771955
H       0.963991    3.741061   -2.963749
H       2.505486    3.649927    0.449584
H       0.694350    3.921682    0.402387
H       2.103851    1.157082    0.074633
