20

O      -0.644510    1.325310    0.271708
C      -0.393943   -0.046379    0.292283
C      -0.871585   -0.897404    1.449973
C      -1.548672   -0.999757    0.108593
O      -2.821309   -0.419892    0.030443
C      -3.215968   -0.118498   -1.306119
C      -4.654078    0.348605   -1.303183
C      -5.654433   -0.259524   -0.396678
N      -5.187584    1.126760   -0.177568
H      -1.591489    1.437729    0.421106
H       0.563240   -0.272234   -0.165328
H      -0.267240   -1.731597    1.789036
H      -1.427474   -0.387988    2.230531
H      -1.432674   -1.904481   -0.487596
H      -2.556291    0.655890   -1.724254
H      -3.116527   -1.014892   -1.938318
H      -4.982823    0.702723   -2.278544
H      -6.689724   -0.350835   -0.712194
H      -5.307839   -1.025891    0.289514
H      -4.503034    1.107615    0.575467
