16

O       0.106922   -0.054170   -0.154237
C       0.026402    1.135864   -0.043322
N      -1.101557    1.896910    0.139992
C      -0.860734    3.318801    0.126725
C      -1.165811    4.026548    1.460359
C       0.134644    3.813498    2.240931
O       1.159204    3.915300    1.244361
C       0.701906    3.345933    0.061265
O       1.105734    1.981032   -0.077206
H      -2.006433    1.472829    0.032609
H      -1.329116    3.812169   -0.730434
H      -1.332416    5.093725    1.285682
H      -2.045791    3.611977    1.956852
H       0.333546    4.578095    2.993884
H       0.161176    2.827611    2.723124
H       1.140998    3.898705   -0.770687
