21

C       0.201481    1.245160    0.146225
O      -0.196476   -0.070304   -0.166304
C       0.545508   -0.646838   -1.217982
C       1.997454   -1.074252   -0.874951
C       1.764266   -1.985926    0.359613
C       1.093098   -2.906011   -0.669880
C       2.068931   -2.387687   -1.774046
C       0.915570   -2.391124   -2.790513
C       0.055096   -2.069273   -1.540381
H       1.229291    1.289577    0.535758
H       0.138919    1.905941   -0.733149
H      -0.480406    1.617390    0.914795
H       0.501199    0.014896   -2.096885
H       2.782127   -0.318433   -0.899653
H       2.696894   -2.427097    0.723669
H       1.181716   -1.583951    1.190285
H       0.876777   -3.961402   -0.507795
H       3.053677   -2.816758   -1.958418
H       0.905158   -1.679412   -3.622798
H       0.740610   -3.401737   -3.170763
H      -1.019782   -2.239166   -1.503474
