15

O       0.025539    0.082081   -0.440175
C      -0.023088    1.218195   -0.054196
C      -1.286851    1.999471    0.341943
C      -0.770862    3.312858    0.888170
O       0.107197    3.141560    2.006862
C       0.693343    3.404624    0.723646
C       1.183973    2.146641    0.081837
C       2.552480    1.619995    0.135242
O       2.051780    2.232575   -1.051622
H      -1.908307    2.144346   -0.550041
H      -1.877866    1.434909    1.068413
H      -1.405062    4.193989    0.920328
H       1.237835    4.337037    0.609921
H       3.315068    2.182488    0.671189
H       2.688993    0.542195    0.075994
