16

O      -0.154019   -0.005522    0.014949
C      -0.089142    1.182909    0.020547
C      -0.994654    2.428596   -0.011446
C      -0.026523    2.967841    1.097354
C       0.953057    2.318384    0.060204
C       0.054221    2.994130   -1.033677
C       0.091374    2.464293   -2.471175
C      -1.000644    3.007727   -3.277782
N      -1.869621    3.453354   -3.895266
H      -2.077702    2.510596   -0.056674
H       0.032490    4.056718    1.155121
H      -0.087655    2.508771    2.084543
H       2.039309    2.274777    0.098111
H       0.110816    4.085498   -1.013493
H       1.042048    2.736352   -2.944595
H       0.030314    1.369933   -2.487568
