15

N       0.096921    1.336302    0.025151
C      -0.006915   -0.004614    0.004834
C      -1.205152   -0.688494    0.022147
N      -2.421014    0.068396    0.015152
C      -1.085206   -2.095680    0.032198
N       0.036241   -2.766937    0.020642
C       1.216373   -2.063476    0.000939
N       2.400392   -2.512109   -0.014990
O       1.159753   -0.639737   -0.005142
H       0.984056    1.761298   -0.184365
H      -0.760068    1.848030   -0.113170
H      -2.940077   -0.033255    0.882132
H      -3.038413   -0.216186   -0.738380
H      -2.003071   -2.688071    0.044431
H       2.346220   -3.529132   -0.009897
