21

C       0.081532    1.420277   -0.536409
C       1.368821    1.718270    0.283816
C       1.344443    0.255466    0.781335
C      -0.113616    0.114640    0.285808
C       2.353122   -0.840978    0.360759
C       3.717103   -0.310543    0.845999
C       3.259712    0.126976    2.276006
C       1.784401   -0.304634    2.147466
O       1.900969   -1.619870    1.513150
H      -0.718810    2.161743   -0.490551
H       0.302446    1.217373   -1.587728
H       2.252980    2.048211   -0.268715
H       1.189418    2.429763    1.096748
H      -0.836810    0.241463    1.097594
H      -0.367499   -0.796681   -0.259948
H       2.294388   -1.374136   -0.589509
H       4.466135   -1.104714    0.865179
H       4.099551    0.514198    0.238610
H       3.769738   -0.420519    3.071089
H       3.373910    1.198903    2.460387
H       1.143351   -0.289263    3.030334
