21

O      -1.206599    1.397887    1.484964
C      -1.352058   -0.013939    1.494297
C      -1.260124   -0.500157    0.050972
C      -1.370497   -2.015899   -0.060277
C      -2.792199   -2.682725    0.054913
C      -2.990053   -2.335062   -1.455461
C      -1.479296   -2.665682   -1.470011
O      -1.450384   -4.072453   -1.173457
C      -2.388535   -4.156498   -0.072157
H      -1.259454    1.712629    2.391947
H      -0.564121   -0.493196    2.098330
H      -2.320131   -0.312024    1.928439
H      -2.030090    0.016491   -0.529948
H      -0.294530   -0.174055   -0.355434
H      -0.598257   -2.487002    0.559811
H      -3.516926   -2.420132    0.825410
H      -3.639537   -2.981753   -2.050305
H      -3.224084   -1.287268   -1.636520
H      -0.804620   -2.450497   -2.297921
H      -1.887424   -4.552749    0.819045
H      -3.221352   -4.818924   -0.337013
