23

C      -0.030728    1.199279   -0.578217
O      -0.139151   -0.203863   -0.586162
C      -1.334420   -0.661464    0.029614
C      -1.310062   -2.165101    0.063476
C      -2.588450   -2.981568    0.219012
C      -3.961690   -2.354694    0.352985
C      -1.857543   -2.983731   -1.091753
O      -2.477996   -2.338488   -2.156526
C      -1.562452   -1.950636   -3.169516
H       0.914198    1.458831   -1.062060
H      -0.855582    1.679274   -1.128902
H      -0.026886    1.602197    0.447344
H      -1.398118   -0.257177    1.054456
H      -2.208032   -0.290684   -0.524431
H      -0.427212   -2.563561    0.556287
H      -2.465701   -3.887106    0.807734
H      -4.119012   -1.561666   -0.379528
H      -4.737310   -3.109318    0.184849
H      -4.114124   -1.940297    1.355374
H      -1.307329   -3.881516   -1.379677
H      -2.141071   -1.440843   -3.943798
H      -0.793066   -1.277219   -2.773126
H      -1.070529   -2.828137   -3.616243
