14

C      -0.282477    1.362829   -0.351000
C      -0.051179   -0.100464   -0.170710
C       0.320535   -1.060154   -1.082675
N       0.405993   -2.211953   -0.374418
N       0.112427   -1.993375    0.920399
N      -0.169852   -0.727980    1.039391
O       0.631198   -1.030244   -2.407807
C      -0.367717   -0.668772   -3.285384
O      -0.160839   -0.563406   -4.448348
H       0.204914    1.921340    0.452419
H       0.122745    1.711089   -1.305095
H      -1.348658    1.611251   -0.322311
H       0.684088   -3.127393   -0.692569
H      -1.328096   -0.505141   -2.768033
