19

C      -0.236342    1.553736    0.279455
C       0.426290    0.221235    0.006540
C       1.883960   -0.006946    0.319186
C       0.820961   -0.747414    1.101966
C       0.578085   -0.456032    2.579463
C       1.575499   -1.229859    3.411086
O       1.409284   -2.353969    3.825742
C       2.916378   -0.549674    3.732186
O       3.184000    0.586545    3.440415
H       0.182663    2.049983    1.159428
H      -0.094802    2.231233   -0.569548
H      -1.314926    1.442171    0.438052
H       0.063459   -0.265389   -0.895644
H       2.495705   -0.563510   -0.382393
H       2.410502    0.787166    0.838979
H       0.699045   -1.799891    0.860491
H       0.695190    0.610522    2.783670
H      -0.427386   -0.774453    2.871074
H       3.607997   -1.217843    4.287793
