15

C      -0.031241    1.411885   -0.028891
C       1.453037    1.902549    0.066871
C       2.167214    0.737930   -0.633861
N       3.485080    0.205182   -0.239030
C       3.284283   -1.043980   -0.044838
N       1.966052   -1.520100   -0.205160
C       1.199611   -0.366928   -0.290454
N       0.012091   -0.075196    0.045668
H      -0.661578    1.797831    0.776790
H      -0.487255    1.728451   -0.977346
H       1.619184    2.876681   -0.397634
H       1.762609    1.956380    1.115531
H       2.193139    0.916177   -1.719912
H       4.063741   -1.752290    0.218019
H       1.636419   -2.354030    0.257282
