14

N       0.098938    1.337245    0.147418
C      -0.044854   -0.028067    0.063890
N      -1.122129   -0.728384    0.028559
C      -0.659717   -2.065883    0.020036
C      -1.486581   -3.204090   -0.028193
C      -2.159439   -4.204025   -0.075962
C       0.703589   -2.052135    0.056862
N       1.677533   -3.022320    0.154802
O       1.121161   -0.749387    0.087852
H       0.924496    1.697986   -0.309927
H      -0.743616    1.824275   -0.123054
H      -2.766034   -5.074231   -0.110769
H       1.292499   -3.946966    0.009608
H       2.479397   -2.862087   -0.443400
