21

O      -0.189466    1.457238   -0.238353
C       0.000719    0.053783   -0.056582
C      -1.421057   -0.512468    0.059277
C      -1.541634   -2.049033    0.000555
C      -0.613188   -2.760656    0.948918
C       0.642010   -3.104705    0.657759
C       1.317197   -2.839443   -0.670667
O       1.805008   -1.508077   -0.819262
C       0.865164   -0.523682   -1.208732
H       0.662316    1.889995   -0.122341
H       0.554849   -0.142523    0.871742
H      -1.853000   -0.134521    0.992724
H      -2.014977   -0.078791   -0.754188
H      -2.580176   -2.320934    0.217839
H      -1.348032   -2.382507   -1.024909
H      -0.991367   -2.952424    1.951516
H       1.255454   -3.571221    1.424481
H       2.200444   -3.477236   -0.769776
H       0.644701   -3.081786   -1.507492
H       0.234248   -0.886405   -2.036100
H       1.465935    0.302302   -1.605792
