25

C      -0.634574    1.375740    0.664368
C      -0.759356   -0.141675    0.511340
C      -1.474942   -0.558914   -0.774770
O      -0.796075   -0.109477   -1.944634
C      -1.695757   -2.072329   -0.864106
O      -2.519143   -2.475956    0.206724
C      -2.671949   -3.882535    0.372637
C      -3.237782   -4.090415    1.773155
C      -3.570092   -4.494022   -0.706730
H      -0.068823    1.639895    1.562869
H      -0.129771    1.813326   -0.201444
H      -1.622053    1.843867    0.742242
H       0.240036   -0.604436    0.516678
H      -1.301972   -0.575648    1.357168
H      -2.457446   -0.072818   -0.814085
H       0.107112   -0.443948   -1.902927
H      -2.144940   -2.299447   -1.841614
H      -0.720128   -2.592356   -0.819565
H      -1.675174   -4.353141    0.313843
H      -4.220801   -3.616351    1.858465
H      -3.347985   -5.156612    1.991937
H      -2.577684   -3.645686    2.522492
H      -3.154242   -4.356173   -1.708615
H      -3.684996   -5.569998   -0.541148
H      -4.562240   -4.031829   -0.679430
