19

C       0.019681    1.514344   -0.012635
C       0.056718    0.006873   -0.034536
C       0.564883   -0.733523   -1.263290
C       1.797916   -1.594483   -1.109709
C       0.432390   -2.182251   -0.836729
C      -0.129763   -2.021869    0.561719
C       0.504040   -0.777979    1.246320
O      -0.753970   -0.461409    1.935294
C      -1.144130   -0.826733    0.572954
H       1.023358    1.934526   -0.140096
H      -0.606459    1.907457   -0.821584
H      -0.386112    1.862762    0.940935
H       0.270648   -0.391859   -2.249352
H       2.286757   -1.909209   -2.026118
H       2.483199   -1.416477   -0.287105
H       0.033694   -2.943588   -1.496516
H      -0.347922   -2.889623    1.182396
H       1.424286   -0.693524    1.826591
H      -2.207471   -0.805458    0.325405
