21

C       0.040713    1.319032   -0.113976
O       0.173797   -0.080167   -0.082357
C       0.590421   -0.563637    1.175977
C       0.691483   -2.080778    1.103596
C       1.159723   -2.700630    2.419604
N       1.199338   -4.155582    2.320928
C       2.448420   -4.735570    1.838322
C       2.061756   -4.845014    3.272167
H       0.993831    1.827351    0.105324
H      -0.282098    1.595969   -1.120690
H      -0.709402    1.676517    0.610050
H       1.565213   -0.122006    1.451091
H      -0.127479   -0.260832    1.959254
H      -0.284464   -2.496759    0.833626
H       1.385500   -2.349712    0.298846
H       2.144697   -2.282369    2.703610
H       0.461695   -2.442321    3.226225
H       2.351304   -5.586658    1.170551
H       3.266658   -4.057856    1.596852
H       2.623670   -4.241452    3.983975
H       1.675262   -5.777788    3.673073
