23

C      -0.117280    1.433745    0.170101
C      -0.076658   -0.093045    0.051032
C       0.645296   -0.575318   -1.199184
C       2.175167   -0.309997   -1.342769
C       2.331231   -1.722286   -1.936874
O       3.422356   -2.448605   -1.420084
C       3.632978   -3.690525   -2.072794
C       0.930456   -2.104463   -1.349163
O       1.065658   -2.792549   -0.124418
H       0.892143    1.858570    0.203957
H      -0.636293    1.886943   -0.682342
H      -0.637982    1.746719    1.080571
H       0.412062   -0.529914    0.928364
H      -1.100157   -0.490060    0.047914
H       0.120490   -0.222485   -2.095756
H       2.507273    0.532071   -1.952936
H       2.668077   -0.256676   -0.367289
H       2.343082   -1.729255   -3.034963
H       3.832107   -3.544830   -3.144165
H       4.506181   -4.154304   -1.608344
H       2.769777   -4.360579   -1.962309
H       0.240695   -2.663313   -1.991579
H       2.016665   -2.878396    0.032974
