16

O       0.091239    0.051260   -0.512180
C       0.049229    1.235939   -0.242551
N      -1.061145    2.008005   -0.066186
C      -0.788586    3.376908    0.355177
C       0.703730    3.567853   -0.018631
C       1.237979    2.147581   -0.062055
C       2.398169    1.601997    0.695582
N       2.477151    1.803194   -0.755305
H      -1.977474    1.590516   -0.035327
H      -1.440134    4.085884   -0.163965
H      -0.949780    3.501513    1.434581
H       0.791815    4.019238   -1.011558
H       1.225480    4.212079    0.691325
H       3.004470    2.281228    1.289129
H       2.315519    0.586696    1.073218
H       2.326550    0.904154   -1.215768
