21

C       0.030886    1.403374   -0.100747
O      -0.023562   -0.003726    0.029272
C      -1.325373   -0.568479    0.031850
C      -1.939362   -0.643632   -1.407977
C      -1.320022   -2.055489   -1.564684
C      -1.170083   -2.130210   -0.020764
C       0.064861   -2.762637    0.596969
C      -2.162411   -0.024353    1.096801
C      -2.867688    0.404078    1.972416
H       1.089397    1.673358   -0.103892
H      -0.424614    1.751293   -1.038824
H      -0.468851    1.906804    0.736564
H      -3.030842   -0.662191   -1.374585
H      -1.618035    0.135429   -2.102304
H      -1.933486   -2.821425   -2.043470
H      -0.347259   -2.020222   -2.061728
H      -2.076495   -2.564874    0.411882
H       0.975862   -2.299773    0.211359
H       0.064820   -2.652163    1.686400
H       0.095139   -3.833702    0.368260
H      -3.489077    0.781413    2.746762
