22

C      -0.475404    1.389665   -0.151343
C       0.168588    0.018326   -0.071937
O       1.482872   -0.009903   -0.679765
C       2.059509   -0.646731    0.476676
C       0.739944   -0.523296    1.270721
C       0.734586    0.404471    2.480156
N       1.278936   -0.274857    3.652712
C       2.702579   -0.094017    3.926437
C       1.673829    0.574438    4.769216
H       0.138668    2.154241    0.331464
H      -0.602700    1.671977   -1.201270
H      -1.465188    1.382400    0.318054
H      -0.488111   -0.717311   -0.559836
H       2.381553   -1.674324    0.263827
H       2.916978   -0.083011    0.864675
H       0.311918   -1.481070    1.573954
H       1.281173    1.338331    2.254723
H      -0.298698    0.687354    2.717461
H       3.231977   -0.971116    4.287339
H       3.278480    0.542444    3.256533
H       1.565969    1.652329    4.655136
H       1.435524    0.195479    5.758968
