18

C       0.101163   -1.203085    0.034366
C       0.048872   -0.000825    0.012910
C      -0.076182    1.417704    0.009361
C       0.211579    2.279647   -1.167391
N       1.113236    2.402831   -0.015608
C       0.375027    3.248708    0.993458
C      -0.772971    2.240470    1.078814
C      -2.246532    2.432432    1.283452
C      -1.414283    1.702217    2.316065
H       0.166293   -2.262891    0.049191
H       0.680610    1.805813   -2.023850
H      -0.470503    3.094997   -1.403574
H       0.964258    3.328279    1.909856
H       0.139186    4.252710    0.622968
H      -2.599427    3.430568    1.522593
H      -2.927922    1.850391    0.671295
H      -1.527381    0.625545    2.391371
H      -1.205696    2.200877    3.257346
