19

C       0.062258    1.521883    0.126222
N       0.058316    0.073940    0.112068
C       0.492582   -0.576345   -0.880669
O       0.503814   -1.912802   -0.976444
C      -0.035681   -2.681806    0.137067
C      -0.469368   -4.011668   -0.460838
C       1.021296   -2.820938    1.226999
C       1.047782    0.015667   -2.092263
N       1.479872    0.539896   -3.027351
H       0.643923    1.867096    0.987912
H       0.469109    1.985535   -0.781638
H      -0.963407    1.877747    0.272486
H      -0.897084   -2.131551    0.525979
H       0.386821   -4.541196   -0.889591
H      -0.911157   -4.642191    0.316143
H      -1.211841   -3.860727   -1.248600
H       1.302445   -1.842564    1.621121
H       0.625395   -3.421646    2.051674
H       1.913385   -3.319112    0.834964
