17

C      -0.034322    1.695258   -0.133680
C      -0.025643    0.171145   -0.020214
C       1.204421   -0.556216   -0.644341
O       1.495161   -1.220609    0.593499
C       0.467107   -0.512401    1.294219
C       0.979198    0.423971    2.364716
O       2.136425    0.691049    2.550490
C      -1.331638   -0.399396   -0.534032
O      -2.050657   -1.151482    0.069403
H       0.925060    2.113614    0.181823
H      -0.207213    1.997253   -1.172660
H      -0.823581    2.143737    0.478299
H       0.994548   -1.262286   -1.457132
H       2.009935    0.122542   -0.950997
H      -0.287291   -1.183407    1.727303
H       0.165328    0.871141    2.983466
H      -1.587812   -0.060685   -1.564822
