18

N       0.175121    1.498749    0.217154
C       0.078764    0.074278    0.016760
C      -1.290278   -0.630851    0.226332
C      -2.526038    0.234677    0.349718
C      -3.823503   -0.580591    0.320665
O      -4.974937    0.227301    0.494035
O      -1.169903   -1.240509   -1.111625
C      -0.020275   -0.544916   -1.396132
O       0.568667   -0.499577   -2.428233
H       1.144147    1.795377    0.205242
H      -0.298720    2.011935   -0.518543
H       0.869935   -0.418677    0.588442
H      -1.281794   -1.425338    0.978777
H      -2.467659    0.798678    1.287044
H      -2.540439    0.970392   -0.465602
H      -3.873401   -1.167455   -0.607677
H      -3.831142   -1.292143    1.154238
H      -5.082110    0.764734   -0.297018
