12

O      -0.096538    1.483055    0.009916
C      -0.025821    0.068752    0.003017
C      -1.368541   -0.491260    0.012382
C      -2.467209   -0.993417    0.019729
C      -3.803719   -1.531590    0.029346
O      -4.071677   -2.709871    0.026738
C      -4.917008   -0.451716    0.044327
O      -6.078308   -0.743356    0.053517
H       0.805241    1.820265    0.005755
H       0.498904   -0.314444   -0.887807
H       0.514551   -0.322298    0.880961
H      -4.552139    0.597927    0.045763
