17

C      -0.015660    1.459951    0.003497
N      -0.025151    0.015492   -0.004458
C      -0.010741   -0.796040   -1.142426
C       0.076177   -2.107163   -0.735760
N       0.175015   -3.282024   -1.507306
C       0.137799   -2.095241    0.690428
O       0.151591   -3.178953    1.551475
C       0.073408   -0.782990    1.093566
O       0.075217   -0.243313    2.339094
H       0.980749    1.866769   -0.211035
H      -0.715805    1.839411   -0.746613
H      -0.330147    1.813561    0.986502
H      -0.058582   -0.357635   -2.125182
H      -0.150316   -3.144610   -2.456184
H      -0.361190   -4.034743   -1.089188
H       1.003636   -3.622382    1.466268
H       0.058532   -0.986281    2.954269
