18

C       0.033165    1.370558    0.261236
C      -0.106564   -0.112744    0.014544
C       1.097375   -0.968690   -0.285282
N       0.383855   -1.075765    0.973289
C       0.854829   -0.815072    2.248545
O       0.303271   -0.067925    3.026342
C       2.079903   -1.617460    2.618893
C       3.062428   -1.013186    3.540129
O       2.161706   -2.012677    3.985282
H       1.028085    1.621335    0.639545
H      -0.130231    1.919082   -0.671786
H      -0.696417    1.710209    1.000400
H      -1.042552   -0.413110   -0.454234
H       1.016847   -1.819576   -0.956891
H       2.067500   -0.475562   -0.280527
H       2.409873   -2.367476    1.902523
H       4.107815   -1.310568    3.468575
H       2.862782   -0.012407    3.917334
