15

C      -0.576589    1.112900   -0.156742
O       0.536065    0.265596    0.098589
C       0.984952   -0.446165   -1.028540
C       2.342852   -1.039562   -0.749974
C       2.426534   -2.357033   -0.993633
C       1.121722   -2.903748   -1.413287
O       0.832425   -4.023498   -1.752288
C       0.139735   -1.698944   -1.349749
O      -1.050981   -1.754312   -1.487284
H      -0.335289    1.856672   -0.931318
H      -1.453943    0.539840   -0.472881
H      -0.793523    1.630858    0.779599
H       1.018873    0.209412   -1.917211
H       3.147066   -0.414034   -0.378467
H       3.309081   -2.974165   -0.881106
