20

C      -0.061399    1.445399    0.067684
C       0.059875   -0.037388   -0.079840
C      -0.523472   -0.934724   -1.198800
C       0.677067   -1.633808   -1.884604
C       0.989236   -2.159306   -0.460967
C      -0.515315   -2.013758   -0.070581
N      -0.240453   -1.002612    1.044104
C       1.147170   -0.917583    0.450492
C       2.346030   -0.503464    1.241925
H       0.458045    1.964408   -0.746532
H      -1.111728    1.756046    0.051015
H       0.368209    1.782500    1.015424
H      -1.409257   -0.598118   -1.735325
H       0.351641   -2.438156   -2.552389
H       1.425366   -1.012357   -2.387344
H       1.603490   -3.037027   -0.265837
H      -1.235115   -2.817053    0.071926
H       2.121638    0.362808    1.870920
H       2.679670   -1.313122    1.900034
H       3.180038   -0.238896    0.581189
