18

C       0.051095    1.509527   -0.094551
C      -0.046995    0.013429   -0.016866
O       0.410595   -0.702399   -1.211878
C      -0.333236   -1.817654   -0.644213
C       0.418200   -2.149332    0.669186
C       0.638394   -0.758556    1.146601
N      -0.316807   -1.642103    1.849314
C      -1.668509   -1.265020    1.377069
C      -1.365819   -0.828188   -0.035280
H       1.098811    1.821995   -0.158771
H      -0.474047    1.888240   -0.975224
H      -0.384989    1.968359    0.798542
H      -0.561691   -2.610380   -1.354235
H       1.091800   -2.986229    0.796841
H       1.503152   -0.392250    1.685438
H      -2.336510   -2.130577    1.439362
H      -2.070588   -0.465786    2.008948
H      -2.152709   -0.475176   -0.697392
