18

C       0.000503    1.484539   -0.056669
C       1.488487    1.952284    0.050584
C       1.896929    0.859329    1.017634
O       2.824842    0.756797    2.080595
C       1.427418    0.992398    2.398902
C       0.437007   -0.122011    2.703085
C       0.208603   -0.767412    1.333338
C       1.339999   -0.428371    0.441762
N      -0.002358   -0.015543    0.046331
H      -0.605201    1.940870    0.733928
H      -0.452784    1.742871   -1.017159
H       1.995040    1.894605   -0.918142
H       1.592489    2.964119    0.447574
H       1.257458    1.977659    2.825780
H       0.814961   -0.880369    3.399050
H      -0.468536    0.304689    3.149652
H      -0.274131   -1.740405    1.301346
H       1.926140   -1.107029   -0.171655
