20

C      -0.060104    1.595239    0.017082
C       0.024622    0.086207   -0.037315
C       0.655491   -0.674784   -1.179607
C       1.358288    0.050110   -2.325646
C       2.871290    0.114708   -2.100461
N       3.165692    0.619341   -0.760640
C       2.609405    0.089650    0.381395
O       3.113287    0.248133    1.478128
C       1.328988   -0.666738    0.181485
H       0.844832    2.075388   -0.362624
H      -0.910099    1.960139   -0.570716
H      -0.198510    1.930911    1.049696
H      -0.834701   -0.409291    0.407114
H       0.164731   -1.602820   -1.455177
H       1.161867   -0.470685   -3.267682
H       0.968515    1.066591   -2.442510
H       3.312859   -0.882420   -2.251401
H       3.338904    0.787016   -2.826325
H       4.075607    1.029205   -0.601085
H       1.276564   -1.551045    0.806071
