23

C      -0.125962    1.548566    0.089273
C      -0.041254    0.020412    0.068692
C       0.726860   -0.551295    1.265465
C       0.811250   -2.070495    1.268520
C       1.579818   -2.693810    2.457373
C       0.829075   -3.999265    2.714982
C      -0.499081   -3.906051    3.443396
C      -0.453531   -3.884022    1.940391
O      -0.518662   -2.616206    1.342830
H       0.871029    2.003825    0.072477
H      -0.679425    1.929081   -0.774946
H      -0.634726    1.904737    0.992154
H      -1.047639   -0.411241    0.059641
H       0.442615   -0.308877   -0.860608
H       1.749884   -0.150949    1.277308
H       0.250848   -0.229146    2.201184
H       1.272250   -2.412062    0.325918
H       2.628943   -2.869980    2.204348
H       1.557193   -2.028853    3.328659
H       1.383195   -4.929049    2.758935
H      -0.867494   -4.802354    3.932279
H      -0.747441   -2.974344    3.941315
H      -0.875821   -4.690258    1.348253
