17

C       0.072019    1.403918    0.028100
O       0.004778   -0.005948    0.039059
C      -1.230902   -0.587029    0.013842
C      -2.439065    0.106898   -0.021551
C      -3.646803   -0.595955   -0.045014
C      -3.659536   -1.986019   -0.033453
O      -4.810790   -2.724336   -0.055233
C      -2.446483   -2.680316    0.002069
C      -1.248419   -1.987089    0.025370
H       1.132773    1.660139    0.051524
H      -0.379168    1.826929   -0.879807
H      -0.422416    1.842887    0.905398
H      -2.463094    1.188722   -0.031360
H      -4.582967   -0.044091   -0.072560
H      -5.564595   -2.126458   -0.078759
H      -2.462811   -3.764192    0.010920
H      -0.301367   -2.513972    0.052963
