17

C      -0.314558    1.552532    0.163400
C      -0.079969    0.053391    0.007142
C       0.758251   -0.478791   -1.202393
C       1.639936    0.421961   -2.104472
N       3.035961    0.202198   -1.663881
C       3.019410   -0.563175   -0.650291
N       1.750979   -1.047429   -0.241516
C       1.051306   -0.514530    0.891077
O       1.334025   -0.498373    2.049862
H       0.613293    2.123667    0.064207
H      -1.023416    1.917540   -0.585962
H      -0.726012    1.761446    1.154762
H      -1.020930   -0.490214    0.138440
H       0.249261   -1.257252   -1.774256
H       1.542467    0.147361   -3.158136
H       1.414381    1.492047   -2.031478
H       3.902160   -0.847735   -0.088569
