14

N       0.465789    1.265543    0.197676
C       0.206653    0.042186    0.119698
O       0.975009   -1.076337    0.327909
C      -0.197566   -1.955698    0.218223
C      -1.067577   -0.732618   -0.152958
N      -2.174876   -0.369638    0.692501
C      -3.350935   -1.049101    0.629278
O      -3.518509   -2.041802   -0.047201
H       1.439555    1.433779    0.455051
H      -0.055547   -2.708905   -0.557244
H      -0.431571   -2.414320    1.180322
H      -1.364157   -0.741755   -1.205950
H      -2.109804    0.496521    1.205489
H      -4.133445   -0.604126    1.273092
