17

C      -0.048633    1.318063   -0.011112
O      -0.354856   -0.022706   -0.336099
C       0.487279   -0.562001   -1.292728
C       1.779711   -1.311379   -0.824740
O       0.930703   -2.341899   -0.210308
C       0.315353   -2.076347   -1.537213
C       1.736659   -2.151539   -2.154818
C       2.109822   -1.575819   -3.492867
O       1.390718   -0.919922   -4.206536
H       0.938895    1.409307    0.464540
H      -0.067125    1.965062   -0.901209
H      -0.810641    1.659385    0.692408
H       0.576396    0.073625   -2.179865
H       2.655031   -0.973381   -0.269952
H      -0.577917   -2.638325   -1.805903
H       2.212194   -3.121857   -1.994712
H       3.153892   -1.810019   -3.803156
