17

O       0.008949   -0.130049    0.007539
C       0.009789    1.071903    0.060114
C       1.256337    1.943938    0.044520
C       1.221404    2.916205   -1.115208
C       1.070635    4.180443   -0.719448
C       1.005704    4.316923    0.779419
C       1.296711    2.891855    1.264140
C       1.085565    2.434591    2.643295
O       2.398102    2.719998    2.151997
H      -0.941516    1.650274    0.121501
H       2.128797    1.283422    0.043369
H       1.292125    2.580975   -2.143155
H       1.009014    5.034526   -1.384219
H       1.750408    5.012050    1.183957
H       0.022590    4.672617    1.114717
H       0.702138    3.131592    3.387686
H       0.880722    1.383275    2.843251
