16

C      -2.069059    1.600662   -0.036453
O      -2.286754    0.188196   -0.040207
C      -1.193156   -0.566266    0.030359
N      -0.020816   -0.072573    0.098056
N      -1.487366   -1.934956    0.021616
C      -2.695779   -2.628551   -0.048660
N      -3.843776   -2.075862   -0.124047
C      -2.488261   -4.057907   -0.025810
C      -2.342089   -5.251933   -0.008421
H      -3.063696    2.042506   -0.099295
H      -1.563370    1.911610    0.881211
H      -1.456641    1.899850   -0.890822
H       0.699283   -0.788348    0.145802
H      -0.673554   -2.524318    0.075901
H      -4.560923   -2.797677   -0.163658
H      -2.227950   -6.308397    0.006044
