18

C      -0.033511    1.607339    0.015928
C       0.084681    0.094642   -0.044102
C       0.804993   -0.623510   -1.175726
C       2.278747   -0.710045   -0.762909
C       2.375267   -0.049785    0.599484
N       1.010316   -0.607617    0.949535
C       1.257396   -1.663890   -0.175630
C       1.142175   -3.062957   -0.081316
C       1.044819   -4.260530    0.001127
H       0.883215    2.119380   -0.285938
H      -0.832552    1.942350   -0.653790
H      -0.291506    1.925712    1.031784
H      -0.901170   -0.355797    0.109183
H       0.495018   -0.801440   -2.198247
H       3.052574   -0.951154   -1.480890
H       3.119300   -0.530640    1.238897
H       2.471606    1.036384    0.681009
H       0.957374   -5.315708    0.078231
