13

C       0.106364    1.422586    0.099157
N       0.151715   -0.031421    0.098516
C       0.430721   -0.628290   -0.976405
O       0.696370    0.037855   -2.158233
N       1.004267   -0.646274   -3.341045
C       1.023824   -1.926973   -3.257353
N       0.780075   -2.726108   -2.148827
C       0.502434   -2.088605   -1.084914
F       0.256681   -2.750984    0.014410
H       1.071614    1.854615   -0.194335
H      -0.641954    1.801286   -0.608734
H      -0.147008    1.769410    1.102095
H       1.263851   -2.440249   -4.181982
