20

C       0.846831    1.596212    0.050060
C       0.104876    0.259793    0.086888
C       0.488036   -0.659630   -1.094925
O       0.717032   -0.046802   -2.329635
C       1.732732   -1.341233   -0.545745
O       2.687441   -1.640402   -1.218313
C       1.554884   -1.453309    0.962200
N       0.459065   -0.537295    1.290388
C      -0.656658   -1.146349    1.993887
H       1.932380    1.447181    0.060146
H       0.595552    2.149712   -0.857875
H       0.582296    2.194154    0.925871
H      -0.972572    0.445168    0.099376
H      -0.287932   -1.443102   -1.180263
H       1.559470   -0.405229   -2.649663
H       1.317686   -2.495893    1.218558
H       2.496348   -1.205521    1.469116
H      -0.304246   -1.588759    2.931228
H      -1.392100   -0.378748    2.251819
H      -1.177259   -1.939308    1.423692
