19

C      -0.010768    1.452074   -0.197832
C       0.036147   -0.078568   -0.148685
C       0.879528   -0.541561    1.045813
C       1.132209   -2.028091    1.131249
O       0.617248   -2.861060    0.425101
N      -1.310499   -0.650625   -0.013552
C      -2.177490   -0.398046   -1.161595
C      -3.438174   -1.133039   -1.028560
N      -4.428597   -1.719877   -0.936492
H       1.003197    1.863037   -0.209459
H      -0.515260    1.818761   -1.095887
H      -0.538061    1.846634    0.676681
H       0.531299   -0.440794   -1.069292
H       1.859512   -0.045339    1.041002
H       0.400655   -0.238691    1.989087
H       1.853404   -2.328577    1.923771
H      -1.202318   -1.656142    0.081864
H      -2.420472    0.668350   -1.219916
H      -1.726208   -0.672437   -2.133490
