19

C      -0.009508    1.383699   -0.094737
O      -0.083519   -0.013109    0.080439
C       0.705095   -0.513391    1.154294
C       0.062449   -1.836210    1.594002
C       0.965620   -2.632103    2.519406
O       0.597435   -3.058721    3.587449
C       2.377660   -2.873167    1.994674
C       2.879440   -1.761102    1.111680
C       2.145086   -0.712000    0.746602
H       1.000667    1.725521   -0.365126
H      -0.689967    1.640586   -0.910146
H      -0.322189    1.922729    0.813155
H       0.657585    0.207000    1.989943
H      -0.902208   -1.671491    2.076380
H      -0.099145   -2.425692    0.681580
H       3.038450   -3.043876    2.852007
H       2.367453   -3.821864    1.435670
H       3.913001   -1.836780    0.782704
H       2.579953    0.062181    0.120630
