15

N       0.000050    1.433283   -0.124103
C      -0.036409    0.041408   -0.054780
C      -1.102901   -0.810013    0.007037
N      -0.614799   -2.121528   -0.019468
C      -1.384003   -3.263952    0.031084
O      -0.942401   -4.387779    0.011473
C       0.775509   -2.094476   -0.097734
C       1.146650   -0.783123   -0.120047
O       2.378112   -0.209440   -0.178001
H       0.888389    1.810142    0.178373
H      -0.763764    1.892787    0.351597
H      -2.161931   -0.620125    0.061645
H      -2.461387   -3.024122    0.092560
H       1.333455   -3.014202   -0.122775
H       3.052475   -0.895760   -0.192345
