19

C      -0.062992    1.517619    0.216065
C       1.372901    2.071487    0.061208
C       2.259165    0.870737    0.458720
C       3.628141    0.738145   -0.167412
C       3.687013   -0.281418   -1.033325
C       2.373191   -0.988043   -1.094392
O       1.960935   -1.605916    0.158124
C       1.479799   -0.305725   -0.142732
C       0.003653    0.041684   -0.263474
H      -0.351427    1.548363    1.272626
H      -0.799934    2.106876   -0.335296
H       1.565816    2.336807   -0.985007
H       1.551266    2.964278    0.666371
H       2.312458    0.795584    1.552832
H       4.461334    1.379558    0.099783
H       4.554639   -0.576538   -1.611182
H       2.028129   -1.505853   -1.984622
H      -0.605218   -0.624284    0.354124
H      -0.347701   -0.063055   -1.294751
