25

C       1.242135    1.683264   -1.904454
C       1.087372    0.334412   -1.196079
C       1.327491   -0.856933   -2.132650
C       1.117224   -2.241222   -1.491249
C       1.226139   -3.393404   -2.512366
C       0.106626   -3.432980   -3.557234
C       2.110677   -2.474820   -0.369618
C       1.783403   -2.298171    1.051003
O       1.867947   -3.602869    0.476525
H       2.250448    1.800441   -2.317208
H       0.533909    1.777218   -2.735285
H       1.064578    2.518163   -1.219369
H       1.779996    0.287480   -0.347495
H       0.078384    0.259509   -0.768916
H       0.660968   -0.760031   -2.997614
H       2.349837   -0.802450   -2.535352
H       0.110885   -2.276602   -1.049241
H       2.200669   -3.334722   -3.016840
H       1.225504   -4.334905   -1.952208
H      -0.877350   -3.490823   -3.078183
H       0.109295   -2.550749   -4.204765
H       0.211286   -4.310522   -4.202897
H       3.159897   -2.367149   -0.658647
H       2.566217   -2.049031    1.766707
H       0.781172   -1.976251    1.331794
