19

C       0.033704    1.477337   -0.245810
C       0.031650    0.007315    0.192313
C      -1.357125   -0.594108    0.147712
C      -1.941829   -1.256169   -1.055228
O      -0.952916   -1.944859   -1.815124
C      -0.696959   -2.850622   -0.711652
C      -1.668474   -2.095108    0.203168
C      -2.533320   -2.689891    1.157983
C      -3.252967   -3.207585    1.972979
H       1.042604    1.898430   -0.201778
H      -0.329111    1.579775   -1.273545
H      -0.610450    2.086197    0.398139
H       0.697253   -0.563998   -0.461250
H       0.430614   -0.078784    1.210269
H      -2.109447   -0.042085    0.709189
H      -2.869050   -0.992264   -1.551609
H      -1.051512   -3.857368   -0.953089
H       0.359640   -2.880884   -0.424083
H      -3.890766   -3.661153    2.690319
