21

C      -0.025805    1.554440   -0.155971
C      -0.157381    0.034659   -0.184942
C      -1.561444   -0.462194    0.129347
O      -2.467024    0.293260    0.402877
C      -1.748093   -1.952045    0.065524
C      -3.080039   -2.519605    0.521962
C      -2.741184   -2.513490   -0.935542
O      -3.344934   -1.618806   -1.803980
C      -4.653754   -2.003254   -2.178670
H       1.000276    1.859466   -0.380280
H      -0.693333    2.015671   -0.888134
H      -0.299455    1.950190    0.825373
H       0.126317   -0.374512   -1.164710
H       0.531227   -0.438228    0.530110
H      -0.847458   -2.540887    0.206274
H      -3.090305   -3.459108    1.062450
H      -3.778274   -1.760489    0.858521
H      -2.470923   -3.467429   -1.393805
H      -5.317887   -2.077679   -1.306869
H      -5.030678   -1.231930   -2.853498
H      -4.656661   -2.970702   -2.703656
