18

O       0.146340    1.132842    0.624566
C       0.055022   -0.045211   -0.162481
C      -1.356114   -0.596019   -0.192681
C      -1.662643   -2.087732   -0.209440
C      -0.576443   -3.150392   -0.119644
N       0.095075   -3.279974    1.168681
C      -0.194307   -2.496243    2.111728
O      -1.077628   -1.457734    2.146576
C      -1.921078   -1.277033    1.025688
H      -0.085408    0.881654    1.525434
H       0.359192    0.244919   -1.173182
H       0.767261   -0.808112    0.179322
H      -2.062321    0.034387   -0.726010
H      -2.537385   -2.383161   -0.779903
H      -1.026258   -4.124719   -0.342689
H       0.197605   -3.002353   -0.883450
H       0.299139   -2.576434    3.077989
H      -2.930396   -1.061662    1.356105
