14

N      -0.168817    1.234516    0.253089
C       0.001869   -0.009270    0.047510
N       1.095341   -0.778144   -0.303103
N       0.688448   -2.054151   -0.405663
C      -0.586714   -2.071508   -0.133279
N      -1.383002   -3.188503   -0.036304
C      -0.949314   -4.426901    0.120578
N      -1.713871   -5.517486   -0.141779
H      -2.707629   -5.410519   -0.281278
H      -1.437335   -6.386790    0.286520
O      -1.124301   -0.875178    0.163877
H       0.728567    1.700281    0.131067
H      -2.380619   -3.016767   -0.124432
H       0.104448   -4.556534    0.328511
