19

C      -0.742647    0.252784    0.692635
O      -0.005977   -0.821612    0.143455
C       0.553324   -0.569887   -1.134519
C       1.595779   -1.666098   -1.384145
C       2.762469   -1.596755   -0.420079
O       3.914971   -1.736193   -0.741005
C      -0.510648   -0.584943   -2.219333
C      -1.063898    0.645404   -2.801132
O      -0.087347   -0.125428   -3.501595
H      -0.138181    1.170886    0.744788
H      -1.654898    0.468981    0.120756
H      -1.025217   -0.041778    1.705808
H       1.045059    0.417809   -1.149450
H       1.101040   -2.637238   -1.240452
H       1.971922   -1.616478   -2.408489
H       2.474976   -1.410454    0.636946
H      -1.121293   -1.489884   -2.235307
H      -2.063788    0.637342   -3.232200
H      -0.719828    1.613337   -2.438554
