18

O       0.016374    1.392824    0.009632
C      -0.037441   -0.008301    0.003319
C      -1.488832   -0.466910    0.011938
N      -2.429645    0.389956    0.024314
N      -1.655905   -1.848278    0.004811
C      -2.968512   -2.506808    0.012994
C      -2.566365   -4.010029    0.002515
N      -1.092894   -4.056427   -0.007799
C      -0.689719   -2.849024   -0.005898
H       0.944112    1.646393    0.004187
H       0.453892   -0.435394   -0.888062
H       0.467027   -0.443860    0.883208
H      -3.347702   -0.053603    0.028732
H      -3.535403   -2.221625    0.906023
H      -3.550836   -2.213350   -0.867281
H      -2.941906   -4.541734    0.882355
H      -2.953664   -4.532447   -0.877821
H       0.359111   -2.577708   -0.012438
