19

C       0.013872    1.564006   -0.027596
C       1.586169    1.584059    0.132955
C       1.586978    0.043010    0.270288
C       1.706617   -1.197582   -0.704522
C       1.675759   -2.088336    0.571851
C       1.201894   -0.898308    1.442146
O      -0.225735   -0.643129    1.258216
C       0.084332    0.020574    0.012051
C       0.255551   -0.911394   -1.215785
H      -0.529425    1.976740    0.824767
H      -0.375581    2.007078   -0.948070
H       2.115337    1.936028   -0.756402
H       1.972278    2.135684    0.993639
H       2.501034   -1.386095   -1.427744
H       1.032760   -2.973165    0.563121
H       2.693756   -2.371507    0.858662
H       1.496110   -0.852965    2.493429
H       0.250315   -0.343256   -2.151627
H      -0.430170   -1.757962   -1.308134
