18

C      -0.120938    1.582520   -0.245479
C       0.030534    0.150376    0.261511
N      -1.259876   -0.537736    0.205412
C      -1.612626   -1.238422   -1.027294
C      -1.310214   -1.997584    0.218099
C      -0.091386   -2.893292    0.330322
O       0.790124   -2.706310   -0.768649
H       0.825046    2.126376   -0.158583
H      -0.420221    1.592637   -1.298824
H      -0.885310    2.115919    0.326930
H       0.811617   -0.373858   -0.306459
H       0.346150    0.165042    1.312741
H      -2.638109   -1.121433   -1.369112
H      -0.864256   -1.292555   -1.814399
H      -2.144133   -2.385745    0.802979
H       0.422693   -2.692562    1.284305
H      -0.447761   -3.935161    0.370173
H       1.606075   -3.179459   -0.580401
