22

C       0.174679    0.837174    1.565550
C      -0.464654   -0.541722    1.786902
C      -1.096599   -0.657459    3.180779
C      -1.497880   -0.806801    0.708465
N      -1.019548   -1.180943   -0.626142
C      -1.826954   -2.163493    0.146617
C      -1.100994   -3.430751    0.561730
C      -3.193927   -2.364717   -0.271048
C      -4.326051   -2.549402   -0.635128
H       0.953310    1.031713    2.310173
H       0.627051    0.898535    0.571568
H      -0.572047    1.636136    1.649792
H       0.326901   -1.293220    1.695185
H      -1.902537    0.075013    3.308133
H      -1.522331   -1.651957    3.347539
H      -0.354324   -0.470831    3.963338
H      -2.347295   -0.123532    0.747368
H      -1.595376   -0.754874   -1.347730
H      -1.120323   -4.156341   -0.256927
H      -0.057977   -3.219314    0.800721
H      -1.582640   -3.888401    1.431209
H      -5.327496   -2.707508   -0.950718
