16

C       0.021352   -1.226460    0.038856
C       0.031428   -0.032008    0.171216
C       0.076639    1.416933    0.315993
C       1.345838    2.035829   -0.322974
C       1.403697    3.521124   -0.137365
N       1.196659    4.320831   -1.158407
O       1.297329    5.616206   -0.658082
C       1.562659    5.552873    0.653406
C       1.644714    4.262352    1.059624
H      -0.001914   -2.282002   -0.073497
H      -0.809864    1.866653   -0.146931
H       0.034271    1.682255    1.379757
H       2.231103    1.571029    0.123057
H       1.360331    1.811707   -1.392011
H       1.669465    6.500778    1.158058
H       1.851019    3.888115    2.048599
