18

C       0.135093    1.499250    0.027610
C       0.000477   -0.027682   -0.021757
C      -1.485371   -0.450875   -0.062819
C      -2.281235    0.022772    1.137560
O      -3.328385    0.614749    1.060535
C       0.804550   -0.647572   -1.207820
O       1.800838   -1.484764   -0.575163
C       1.576320   -1.365778    0.752737
N       0.643391   -0.622137    1.176678
H       1.189251    1.789865    0.049712
H      -0.334469    1.958074   -0.849071
H      -0.344673    1.903248    0.923202
H      -1.972204   -0.078725   -0.969936
H      -1.531402   -1.548686   -0.072546
H      -1.826812   -0.228285    2.118350
H       0.196806   -1.277536   -1.863344
H       1.322960    0.102240   -1.811589
H       2.249893   -1.947532    1.372705
