19

C       0.820776    1.275374    0.123669
C       0.085687   -0.050383   -0.029476
O      -1.285327    0.152691   -0.321021
C       0.709309   -1.039899   -1.048232
C       1.310038   -1.883682    0.138225
C       2.783430   -1.666295    0.295360
O       3.301253   -0.851966    1.031017
C       0.374520   -1.092923    1.108417
O       0.845838   -0.682407    2.356347
H       1.893458    1.135835    0.276575
H       0.670171    1.886836   -0.771146
H       0.436521    1.821058    0.993134
H      -1.638020    0.777925    0.322023
H      -0.062782   -1.592890   -1.584032
H       1.418952   -0.621590   -1.765737
H       1.131253   -2.959967    0.054967
H       3.421760   -2.307903   -0.351299
H      -0.545650   -1.662092    1.274568
H       1.773623   -0.431968    2.238035
