14

O       0.008821    1.436170    0.007669
C       0.004289    0.021625    0.001859
C      -1.406368   -0.454778    0.012339
C      -2.548354    0.231411    0.024542
C      -3.695197   -0.734430    0.030285
O      -3.095838   -2.030350    0.020377
C      -1.730757   -1.903855    0.010433
O      -0.987601   -2.846212   -0.000754
H       0.923085    1.733152    0.000798
H       0.511804   -0.391823   -0.885121
H       0.527336   -0.399181    0.876253
H      -2.663545    1.305990    0.029377
H      -4.326977   -0.640900    0.922881
H      -4.341538   -0.634064   -0.851077
