22

C      -0.104356    1.556008   -0.085978
C       0.054916    0.021387   -0.010908
C       0.687582   -0.460989   -1.240201
C       1.207802   -0.825803   -2.261782
C       0.788681   -0.507369    1.274868
C       0.043749   -0.019996    2.531367
C       0.760667   -2.047313    1.255943
C       2.249285   -0.026030    1.321308
H       0.866551    2.057525   -0.108193
H      -0.637924    1.828903   -1.000071
H      -0.674374    1.936692    0.764526
H      -0.957419   -0.407331    0.023042
H       1.660038   -1.157995   -3.163212
H      -1.017720   -0.291365    2.497374
H       0.474171   -0.482166    3.425942
H       0.112858    1.063735    2.659845
H       1.270857   -2.443299    0.373992
H       1.254635   -2.450948    2.146075
H      -0.268832   -2.423529    1.246634
H       2.317088    1.063897    1.394188
H       2.758193   -0.444098    2.196269
H       2.797085   -0.340839    0.428425
