19

N       0.692056    0.016811   -0.380332
C      -0.379099    0.479362    0.310775
O      -0.393493    1.515186    0.947503
C      -1.630581   -0.403675    0.205147
N      -1.338170   -1.738929   -0.299394
C      -1.279469   -2.920985    0.542420
C      -2.340061   -2.921469    1.657714
C      -3.447026   -2.727622    0.572709
C      -2.350730   -2.749664   -0.510430
H       1.540408    0.556571   -0.390624
H       0.611948   -0.848439   -0.888830
H      -2.114348   -0.372561    1.187953
H      -2.308189    0.091662   -0.500348
H      -0.371725   -3.514509    0.527725
H      -2.412446   -3.896549    2.143660
H      -2.243197   -2.156868    2.433680
H      -4.114822   -3.588675    0.506185
H      -4.053899   -1.819391    0.625364
H      -2.438534   -3.188261   -1.498890
