17

O      -0.166118   -0.007963    0.018098
C      -0.013282    1.185401   -0.012800
C       1.317866    1.889890   -0.036589
C       1.422237    3.175678    0.822855
O       1.795305    3.980597   -0.310686
C       1.565886    2.880434   -1.214875
C       2.823983    2.335034   -1.914608
O       2.988099    1.006237   -1.445265
C       2.542459    0.964585   -0.096163
H      -0.888355    1.875567   -0.027976
H       0.470384    3.507503    1.257439
H       2.190961    3.160991    1.603465
H       0.731759    3.086937   -1.894320
H       2.738670    2.294060   -3.003377
H       3.673615    2.979012   -1.639957
H       3.328420    1.316620    0.589793
H       2.287149   -0.069542    0.141290
