16

O      -0.064831    1.440111   -0.064802
C       0.014882    0.038377    0.004649
C       0.026340   -0.639505    1.398032
C      -1.469174   -0.243387    1.568966
O      -2.152652   -1.272527    2.298834
C      -1.610468   -2.419766    1.761024
N      -1.882917   -3.609497    2.072363
C      -0.640081   -1.905254    0.741749
C      -1.347124   -0.665651    0.075095
H       0.826222    1.800168   -0.020141
H       0.723396   -0.371988   -0.725079
H       0.805345   -0.639892    2.161061
H      -1.794210    0.741754    1.884412
H      -2.590340   -3.635160    2.809100
H      -0.066568   -2.620007    0.158252
H      -2.136600   -0.691334   -0.675403
