24

C       0.175003    1.573199    0.102437
C       0.250685    0.062229   -0.046099
O       0.691138   -0.480470    1.183549
C       0.642060   -1.896735    1.284248
C       1.707980   -2.580906    0.418864
C       0.778205   -2.232754    2.764734
C       2.057711   -1.787165    3.440346
C      -0.477553   -2.308967    3.550726
N       0.261947   -3.541797    3.207478
H       1.157375    1.981527    0.356480
H      -0.160223    2.032702   -0.832297
H      -0.524417    1.846302    0.897501
H      -0.738883   -0.350570   -0.306950
H       0.936634   -0.202262   -0.865657
H      -0.353332   -2.245872    0.953597
H       2.701405   -2.184419    0.645327
H       1.714724   -3.659434    0.605740
H       1.514880   -2.429372   -0.646570
H       2.190957   -0.708231    3.323541
H       2.025355   -2.029986    4.505043
H       2.931354   -2.290494    3.013639
H      -0.470879   -2.053901    4.606883
H      -1.416947   -2.104114    3.043444
H      -0.206830   -4.014810    2.436960
