19

C       0.058924    1.450084    0.061058
C      -0.023984   -0.063085    0.036021
O      -0.116316   -0.726317    1.042160
C       0.035617   -0.719017   -1.339842
N      -0.395105   -2.089619   -1.283968
C       0.082093   -2.938934   -2.345805
C       0.032072   -4.399575   -1.890097
N      -0.036886   -5.316323   -2.896360
O       0.107132   -4.709273   -0.717679
H       0.814485    1.820144   -0.639647
H      -0.904307    1.868854   -0.254288
H       0.280021    1.794446    1.071965
H      -0.568933   -0.130186   -2.046570
H       1.086048   -0.593281   -1.685302
H      -0.170292   -2.500687   -0.381272
H      -0.512065   -2.802552   -3.261442
H       1.135119   -2.735943   -2.632913
H      -0.253962   -5.051385   -3.841080
H      -0.099064   -6.289442   -2.644510
