22

C       0.060303    1.629672    0.043444
C       0.051184    0.098967    0.082524
C       0.663570   -0.515932   -1.180207
N       2.092279   -0.164463   -1.315442
C       2.690341   -1.243100   -1.602879
O       2.003543   -2.399940   -1.698056
C       0.620446   -2.082654   -1.310354
C       0.352853   -2.848670   -0.015634
C      -0.294326   -2.547092   -2.438248
H       1.080608    2.003443   -0.071045
H      -0.530821    2.006614   -0.798900
H      -0.362862    2.047934    0.961773
H       0.603915   -0.248856    0.962028
H      -0.979513   -0.261808    0.191449
H       0.138800   -0.080042   -2.042987
H       3.754873   -1.337269   -1.792374
H       1.039189   -2.540758    0.777024
H      -0.671260   -2.688032    0.332667
H       0.490893   -3.919876   -0.187608
H      -0.231503   -3.630463   -2.576842
H      -1.333890   -2.290694   -2.207754
H      -0.022206   -2.061039   -3.379301
