17

C       0.065924    1.477368    0.037864
C      -0.022716   -0.007506   -0.031923
N      -1.046415   -0.718004    0.221074
C      -0.658201   -2.117118    0.016093
C      -1.562241   -2.796127   -1.033934
C      -2.947682   -2.934018   -0.591978
N      -4.040038   -3.068176   -0.241135
C       0.828738   -2.042445   -0.431701
O       1.129511   -0.634547   -0.405728
H       0.831380    1.775144    0.761137
H       0.361179    1.884251   -0.934143
H      -0.898340    1.888716    0.333000
H      -0.764092   -2.661728    0.960476
H      -1.540336   -2.214517   -1.962316
H      -1.173218   -3.795102   -1.264461
H       1.512162   -2.557113    0.248124
H       0.995434   -2.413903   -1.448849
