17

C       0.027093    1.495622   -0.079626
C      -0.003451   -0.000893   -0.014391
N       0.641255   -0.898858   -1.046161
C       0.018754   -1.847363   -0.056983
C       0.557120   -0.952855    1.083636
O      -0.330057   -0.985265    2.200639
C      -1.577743   -0.990225    1.599611
N      -2.692569   -1.011338    2.184230
C      -1.258442   -0.957344    0.138200
H       1.058019    1.849425   -0.177107
H      -0.545616    1.866575   -0.936036
H      -0.405515    1.925648    0.829187
H       0.076813   -0.888226   -1.900105
H       0.072262   -2.931055   -0.159147
H       1.600179   -0.948708    1.387057
H      -2.567934   -1.026579    3.198614
H      -2.067977   -0.951971   -0.587927
