13

O       0.014213   -0.048451   -0.414819
C       0.050707    1.098738   -0.066098
O       1.126370    1.804965    0.288099
C       2.376475    1.120076    0.223319
C       3.315467    1.513836   -0.875470
C       3.564497    1.958107    0.552469
C      -1.148465    1.939747    0.043115
N      -2.123131    2.555716    0.106711
H       2.306149    0.087816    0.540085
H       3.938098    0.740115   -1.309350
H       2.968242    2.267430   -1.572647
H       3.378505    3.000136    0.785075
H       4.366582    1.499699    1.118911
