20

C       0.039849    1.684418   -0.029332
C      -0.139188    0.164086   -0.087488
C       0.696549   -0.492949   -1.186155
C       2.223952   -0.583145   -0.856414
C       2.012607   -2.079923   -0.581712
O       2.626499   -2.910898    0.024042
C       0.628105   -2.065918   -1.247159
C      -0.500149   -2.868527   -0.613536
H       1.082882    1.959519    0.160297
H      -0.257371    2.152385   -0.974432
H      -0.568699    2.124278    0.766608
H       0.122547   -0.272225    0.886185
H      -1.198422   -0.070547   -0.249899
H       0.478053   -0.014375   -2.144917
H       2.875730   -0.415665   -1.719783
H       2.600938    0.008140   -0.017295
H       0.765759   -2.382013   -2.290380
H      -0.671938   -2.574797    0.425663
H      -1.439016   -2.743488   -1.162253
H      -0.245407   -3.932519   -0.616896
