16

C      -0.002892    1.550424   -0.017037
C      -0.008439    0.019440   -0.011158
O       0.749082   -0.475915    1.125567
C       2.077195   -0.613056    0.956182
N       2.672808   -0.303810   -0.126035
C       2.703757   -1.143210    2.136739
C       3.274966   -1.581987    3.098991
C      -1.352177   -0.536097    0.100526
C      -2.472518   -0.963944    0.161648
H       1.020232    1.911349   -0.136650
H      -0.607974    1.917657   -0.850157
H      -0.423121    1.932927    0.916182
H       0.477704   -0.349424   -0.919592
H       3.668400   -0.497646   -0.055432
H       3.774780   -1.971126    3.952168
H      -3.459256   -1.352954    0.216736
