18

C      -0.127538    1.593073   -0.156422
C       0.042391    0.086843   -0.044002
O      -1.221429   -0.563165   -0.120789
C       1.120860   -0.654028   -0.894826
N       1.659320   -1.370232    0.329890
C       2.211042   -0.369638    1.266895
C       3.002019    0.854641    0.955434
O       3.106860    1.422499   -0.106513
C       0.726862   -0.547906    1.171203
H       0.825221    2.120755   -0.115195
H      -0.596232    1.840702   -1.117703
H      -0.783117    1.957870    0.640277
H      -1.651759   -0.272474   -0.932283
H       0.668934   -1.395077   -1.555684
H       1.861054   -0.054238   -1.420330
H       2.620285   -0.871215    2.143565
H       3.551576    1.230277    1.848711
H       0.171801   -0.967615    2.005090
