16

O       0.308709    0.799815    1.039138
C      -0.011744    0.117581   -0.157593
C      -1.435876   -0.381698   -0.099596
C      -2.175928   -0.354620    1.086338
C      -3.471238   -0.850998    1.063494
N      -4.058372   -1.359222   -0.026218
C      -3.340402   -1.377556   -1.144016
O      -3.929207   -1.888095   -2.247737
C      -2.031367   -0.902590   -1.241583
H       1.241896    1.027886    1.014201
H       0.102168    0.771657   -1.036954
H       0.656280   -0.745224   -0.315873
H      -1.745378    0.048547    1.992058
H      -4.077176   -0.843572    1.966244
H      -4.817956   -2.151346   -1.970775
H      -1.513903   -0.946829   -2.193458
