23

C      -0.558230    1.330547    0.524276
C      -0.155203   -0.140113    0.570290
C       1.238479   -0.378758    1.129957
O       1.967098    0.530224    1.458226
C       1.677068   -1.834494    1.295702
C       1.644758   -2.214495    2.769071
C       0.396180   -2.775117    3.413449
C       1.619170   -3.647077    3.251618
C       1.616774   -4.835311    2.314516
H       0.146640    1.906849   -0.080261
H      -1.558816    1.447770    0.098677
H      -0.554958    1.766668    1.526640
H      -0.858096   -0.734357    1.171546
H      -0.188535   -0.595326   -0.430382
H       1.039740   -2.498632    0.704890
H       2.701685   -1.915193    0.914884
H       2.223055   -1.527091    3.379859
H       0.114918   -2.430631    4.402593
H      -0.449133   -2.990429    2.765275
H       2.188370   -3.817329    4.162411
H       0.999940   -4.659640    1.428260
H       2.629261   -5.077016    1.972058
H       1.216285   -5.722366    2.817400
