16

N       0.023111    1.353393    0.023168
C      -0.069100   -0.017381    0.034161
N      -1.201721   -0.603992    0.074858
C      -1.255647   -2.062292    0.083796
C      -0.589816   -2.681596    1.287419
C       0.718612   -2.551842    1.493806
N       1.568960   -1.797857    0.669876
C       1.332025   -0.628389   -0.006807
O       2.238914   -0.044448   -0.577759
H       0.876520    1.713079   -0.378257
H      -0.830586    1.836267   -0.210970
H      -2.308351   -2.353103    0.051615
H      -0.790353   -2.470810   -0.829224
H      -1.180835   -3.237390    2.005849
H       1.228184   -3.026199    2.325804
H       2.551866   -2.037587    0.666198
