16

C      -0.014937    1.521791   -0.075369
C       1.527227    1.310063   -0.028326
C       1.156673    0.164403    0.959069
N      -0.089005   -0.019166    0.058070
C       0.605623   -0.359213   -1.175915
C       0.657089   -1.157684   -2.293512
C       1.813885   -0.673590   -2.971634
N       2.424096    0.335955   -2.333182
N       1.654232    0.489436   -1.247763
H      -0.441908    1.995021    0.810736
H      -0.449480    1.918845   -0.993868
H       2.290325    2.072376    0.107888
H       1.814843   -0.704369    1.005534
H       0.853071    0.494703    1.954115
H      -0.004996   -1.952606   -2.591291
H       2.223050   -1.027936   -3.906385
