16

C       0.013862    1.537120    0.018836
C      -0.025069    0.036241   -0.005403
C      -1.183240   -0.658506   -0.124448
N      -1.140027   -2.042617   -0.144014
C       0.013706   -2.773699   -0.045814
O       0.056584   -3.998328   -0.078067
C       1.213559   -1.908609    0.093564
N       2.365544   -2.606561    0.229628
N       1.189530   -0.605190    0.100775
H       0.632133    1.919999   -0.800396
H      -0.986971    1.967281   -0.072079
H       0.462914    1.896465    0.951131
H      -2.161044   -0.205815   -0.209778
H      -1.989043   -2.581077   -0.243406
H       2.314592   -3.600239    0.073278
H       3.243775   -2.121360    0.174194
