25

C      -0.052403    1.582804   -0.096944
C       0.052866    0.055506   -0.005073
C       0.674672   -0.527843   -1.288059
C       0.801983   -2.047944   -1.204452
O       1.509760   -2.447572   -0.043719
C       0.859296   -2.015211    1.135639
C       0.787936   -0.477434    1.265199
C       2.218197    0.077017    1.403304
C      -0.014237   -0.151896    2.535836
H       0.929678    2.049774   -0.223693
H      -0.661273    1.867686   -0.961775
H      -0.519413    2.018793    0.790775
H      -0.973523   -0.338684    0.059338
H       0.057543   -0.259350   -2.154611
H       1.665586   -0.090397   -1.459474
H      -0.202378   -2.508342   -1.205845
H       1.355624   -2.451008   -2.057775
H      -0.162435   -2.434002    1.176020
H       1.427898   -2.439717    1.970055
H       2.850113   -0.227288    0.565761
H       2.227614    1.168984    1.466963
H       2.682487   -0.306853    2.318602
H       0.436634   -0.632556    3.411834
H      -0.039702    0.923411    2.734954
H      -1.049336   -0.503745    2.458414
