18

O       0.087385    1.424632   -0.188731
C       0.038642    0.030530    0.073145
C      -1.382141   -0.489268    0.082044
C      -1.960688   -1.107433   -1.133458
N      -1.537369   -1.957642    0.016966
C      -2.668436   -2.313824    0.837618
O      -3.038716   -3.441733    0.989186
C      -3.294381   -1.056656    1.463257
C      -2.351344    0.103442    1.110170
H      -0.231810    1.567615   -1.085917
H       0.642147   -0.548955   -0.639891
H       0.484087   -0.101587    1.065121
H      -3.027344   -1.005315   -1.320409
H      -1.357907   -1.248048   -2.026319
H      -4.299885   -0.941615    1.045444
H      -3.423617   -1.209673    2.536839
H      -1.779483    0.427230    1.984552
H      -2.870733    0.984716    0.726993
