22

C      -0.116790    1.520023   -0.066916
C       0.063264    0.009450    0.019450
O       0.755763   -0.399711   -1.151696
C       0.935762   -1.804435   -1.168624
C       1.946080   -2.231547   -0.105369
N       1.725415   -1.584400    1.198785
C       2.258814   -0.228597    1.359397
C       0.789468   -0.444724    1.288138
C      -0.046582   -0.421073    2.550901
H       0.853754    2.023649   -0.053322
H      -0.627963    1.779163   -0.998154
H      -0.713799    1.891378    0.770247
H      -0.933150   -0.470198    0.018479
H      -0.032804   -2.304633   -1.002513
H       1.285981   -2.074253   -2.169495
H       1.889151   -3.318227    0.035317
H       2.962085   -2.003632   -0.447499
H       2.741307   -0.022019    2.312371
H       2.737259    0.226714    0.494216
H      -0.349674    0.598324    2.813632
H      -0.955251   -1.022519    2.431241
H       0.524196   -0.837142    3.384118
