15

C      -0.072504    1.465819    0.112572
C       0.040950   -0.047431   -0.048914
C       0.755311   -0.452018   -1.322028
O       1.195468    0.325700   -2.131565
C       0.910149   -1.929720   -1.562913
N       1.481221   -2.526563   -2.568236
C       1.315817   -3.844948   -2.240829
N       0.687836   -4.066867   -1.114524
O       0.412007   -2.783935   -0.652754
H       0.915392    1.932582    0.133645
H      -0.624748    1.908291   -0.720214
H      -0.591958    1.710465    1.042431
H       0.573130   -0.506508    0.795211
H      -0.945464   -0.530528   -0.048721
H       1.670084   -4.660793   -2.853734
