14

O       0.363855    0.085750    0.499492
C       0.506260    1.264570    0.595484
O       0.676370    2.061656   -0.485777
C       0.879690    3.461671   -0.249407
C       2.327672    3.814102   -0.248459
C       3.140633    4.448000   -1.134258
C       4.407300    4.425508   -0.490924
N       4.359865    3.831053    0.675353
O       3.034558    3.443106    0.835667
H       0.503792    1.826462    1.548768
H       0.371291    3.988641   -1.058062
H       0.419318    3.753948    0.702289
H       2.881577    4.860395   -2.094899
H       5.350864    4.821539   -0.838557
