18

O       0.080862    1.423370   -0.138679
C       0.049986    0.032815    0.164031
C      -1.363310   -0.521173    0.127898
C      -2.004170   -0.844162   -1.258092
O      -1.064319   -1.982815   -1.402161
C      -1.558644   -2.060537    0.001763
C      -2.970390   -1.797214   -0.540869
C      -4.343707   -1.706180   -0.027702
N      -3.936455   -2.738668   -1.025440
H      -0.088387    1.519716   -1.080840
H       0.694045   -0.547344   -0.506514
H       0.449967   -0.056229    1.179916
H      -2.019966   -0.010306    0.838518
H      -2.163817   -0.204993   -2.128710
H      -1.184383   -2.871984    0.625009
H      -4.604817   -2.102142    0.949732
H      -4.961021   -0.874517   -0.359489
H      -4.262430   -2.496186   -1.957709
