16

C      -1.444864   -0.073114   -0.251020
C      -0.826809    0.955975   -0.281756
C      -0.075466    2.203792   -0.337470
C       1.405436    2.077988    0.018134
C       2.219868    1.023029   -0.734003
C       2.091800   -0.330786   -0.191289
N       2.046449   -1.406934    0.225053
C       2.099267    3.270161    0.528645
O       1.727562    2.197132    1.397850
H      -1.973273   -0.993437   -0.207644
H      -0.151385    2.630773   -1.347143
H      -0.516936    2.936858    0.346766
H       1.927707    1.009153   -1.790036
H       3.280405    1.291001   -0.697118
H       3.168383    3.389866    0.359963
H       1.545317    4.197667    0.666782
