21

C       0.056891    1.375826    0.117684
O      -0.099034   -0.009496   -0.086002
C       0.641969   -0.542528   -1.176915
C       2.127915   -0.673302   -0.839019
C      -0.008799   -1.908669   -1.507279
C      -1.510841   -1.759114   -1.804013
O      -2.056129   -3.061438   -1.929535
C       0.676869   -2.565994   -2.617135
C       1.237808   -3.077033   -3.549445
H       1.072780    1.645508    0.439107
H      -0.180218    1.949215   -0.792216
H      -0.642203    1.663679    0.906935
H       0.522681    0.117241   -2.053129
H       2.671451   -1.122360   -1.672929
H       2.573100    0.303390   -0.631080
H       2.256917   -1.305419    0.045490
H       0.076946   -2.537264   -0.610578
H      -1.969724   -1.203049   -0.978758
H      -1.638432   -1.176609   -2.730317
H      -2.999533   -2.974345   -2.092501
H       1.727526   -3.548928   -4.364771
