23

C       0.009955    1.540123    0.011234
C       0.027334    0.023137    0.012912
C       1.373353   -0.660862   -0.202263
C       0.714429   -0.693891    1.155003
O       1.257969    0.144556    2.147054
C       0.146602   -1.986736    1.715088
C      -0.781812   -2.724701    0.742401
C      -1.838256   -1.761043    0.194279
C      -1.207649   -0.628228   -0.631230
H       0.898265    1.951401    0.492778
H      -0.039319    1.920530   -1.016015
H      -0.866670    1.921518    0.547978
H       1.402845   -1.567074   -0.800453
H       2.244815   -0.021898   -0.303763
H       2.067298   -0.269784    2.466225
H       0.969279   -2.640378    2.037606
H      -0.417532   -1.724439    2.619334
H      -0.206125   -3.159113   -0.085600
H      -1.257543   -3.564892    1.259506
H      -2.571233   -2.296784   -0.419091
H      -2.392346   -1.332335    1.040132
H      -1.962345    0.145959   -0.807992
H      -0.934087   -1.012129   -1.622761
