16

N      -0.183739   -1.081385   -0.378453
C      -0.153911    0.052658   -0.155312
C      -0.088427    1.472229    0.134598
C       0.038757    1.891498    1.623284
O       1.264550    2.595294    1.353444
C       1.293259    2.178224   -0.013040
C       2.549520    1.477347   -0.558851
O       2.633742    2.417480   -1.651191
C       1.574420    3.224011   -1.103378
H      -0.885684    1.994888   -0.398775
H      -0.749862    2.554961    1.990644
H       0.181334    1.060929    2.321505
H       3.400572    1.553520    0.129427
H       2.436552    0.443797   -0.903241
H       0.775229    3.416062   -1.829599
H       1.934839    4.174739   -0.689271
