18

C       0.140730    1.614415    0.163595
C      -0.032860    0.097556    0.053596
C       0.555211   -0.488627   -1.241645
C       0.679717   -2.009091   -1.232266
O       1.076550   -2.695435   -0.329537
C       0.181537   -2.546916   -2.583573
N      -0.359104   -1.364706   -3.216330
C      -0.239274   -0.190446   -2.517901
O      -0.689983    0.877811   -2.870665
H       1.202463    1.885701    0.181416
H      -0.323706    2.119258   -0.685863
H      -0.313743    1.987337    1.086469
H       0.456769   -0.411185    0.890829
H      -1.096850   -0.162148    0.108654
H       1.568913   -0.084675   -1.384304
H       1.018400   -2.992147   -3.138841
H      -0.565644   -3.332500   -2.417882
H      -0.857559   -1.376560   -4.092358
