13

N       0.065389    1.324200    0.140528
C      -0.062458   -0.026121    0.049462
N      -1.156158   -0.718625    0.025673
C      -0.689721   -2.036490    0.003442
C      -1.051050   -3.346841   -0.027250
O       0.091261   -4.110651   -0.043856
C       1.191805   -3.290306   -0.023902
C       0.730374   -2.021157    0.005892
O       1.143020   -0.712600    0.036464
H       0.926768    1.713803   -0.208911
H      -0.769875    1.839779   -0.088106
H      -1.978128   -3.891606   -0.039981
H       2.151620   -3.773612   -0.032885
