18

C      -0.158142    1.567893    0.015429
C       0.004572    0.055256    0.031074
C       1.127706   -0.601408   -0.834442
C       2.149500   -0.223305    0.277213
C       0.895902   -0.567613    1.171596
O       0.773871   -0.273135    2.507026
C       0.784443   -2.056464    0.824337
O       0.694170   -2.973598    1.608530
N       0.850498   -2.036231   -0.553540
H       0.785964    2.110452    0.105620
H      -0.642193    1.890366   -0.912592
H      -0.795407    1.878052    0.849220
H      -0.969846   -0.427027   -0.094800
H       1.268945   -0.378271   -1.888928
H       3.036376   -0.854613    0.375407
H       2.425850    0.830156    0.306308
H       0.678816   -1.126221    2.960674
H       1.280904   -2.788134   -1.071234
