18

O       0.005468   -0.001568   -0.424581
C       0.068356    1.141233   -0.041268
C       1.304322    1.945448    0.029372
C       1.200790    3.468918   -0.119981
C       1.505166    2.895359    1.202494
C       0.733371    3.041635    2.521355
C       2.112859    3.131486    3.173408
C       2.952167    1.973584    2.817361
N       2.837617    3.071185    1.829588
H      -0.846441    1.682749    0.300516
H       2.196055    1.462027   -0.355756
H       2.006571    3.953961   -0.659063
H       0.211995    3.886024   -0.288777
H       0.168479    3.975142    2.569945
H       0.093731    2.217394    2.849297
H       2.400573    3.853374    3.929649
H       3.942078    1.914615    3.258384
H       2.493093    1.014285    2.589236
