14

O       0.053446    1.385521   -0.048350
C       0.090673   -0.024280    0.000963
C      -1.314335   -0.609705    0.108430
O      -2.127556   -0.111218   -0.970854
C      -1.370450   -2.134443    0.127306
O      -2.702813   -2.595095    0.190242
H      -0.698506    1.609284   -0.611326
H       0.591879   -0.446109   -0.890656
H       0.689308   -0.308381    0.873468
H      -1.799753   -0.219634    1.009520
H      -1.738913   -0.429720   -1.796482
H      -0.849420   -2.527416   -0.766134
H      -0.844661   -2.523971    1.006028
H      -3.209097   -2.016390   -0.393898
