23

C       0.192509    1.514621   -0.141959
C      -0.003911    0.005006    0.019132
C      -1.480259   -0.450212    0.064300
C      -2.246890    0.179481    1.228162
O      -2.163513   -0.022095   -1.114739
C      -1.509596   -2.003276    0.162987
C      -2.844224   -2.588889    0.136753
C      -3.946983   -3.072219    0.118749
C      -5.281644   -3.654024    0.093681
H       1.247738    1.751906   -0.307647
H      -0.382801    1.884692   -0.994791
H      -0.132789    2.063469    0.746665
H       0.479913   -0.512059   -0.822149
H       0.506846   -0.348218    0.923943
H      -2.317240    1.261368    1.097117
H      -3.259444   -0.227512    1.269538
H      -1.746803   -0.026285    2.179624
H      -1.784777   -0.489822   -1.867138
H      -0.912644   -2.410139   -0.666712
H      -0.986241   -2.306057    1.079544
H      -5.295241   -4.598384   -0.462037
H      -5.647501   -3.861497    1.105542
H      -5.999730   -2.979179   -0.385398
