17

N       0.035439    1.291217   -0.272318
C      -0.036917   -0.043145   -0.014337
N      -1.103696   -0.770620    0.000735
C      -0.513278   -2.087429    0.049147
C      -0.554238   -3.517996    0.663950
C       0.887758   -3.339571    0.009176
C       0.173798   -2.731069   -1.211995
C       0.852189   -1.934011    0.683005
O       1.213549   -0.629584    0.173437
H       0.812192    1.780448    0.144164
H      -0.850379    1.771057   -0.249363
H      -0.598018   -3.590318    1.753946
H      -1.190328   -4.261967    0.180310
H       1.688965   -4.077593    0.022935
H      -0.442895   -3.407667   -1.806814
H       0.758076   -2.055108   -1.837217
H       0.939239   -1.914480    1.773325
