16

C       0.558523    0.381399   -0.497396
C       0.009724   -0.006943    0.872534
O      -0.228566    1.144746    1.681872
C      -1.262862   -0.846645    0.834988
O      -2.071469   -0.842158   -0.342582
C      -1.482609   -2.090354    0.062863
C      -0.506634   -2.710348   -0.792752
C       0.273457   -3.308256   -1.485510
H       1.428551    1.028374   -0.360268
H       0.854493   -0.495347   -1.076079
H      -0.200049    0.919419   -1.074792
H       0.764533   -0.575950    1.429363
H      -0.799219    1.738098    1.180162
H      -1.830895   -0.759652    1.763370
H      -2.205890   -2.793748    0.477343
H       0.969067   -3.820807   -2.103464
