18

C      -0.028228    1.474121    0.041097
C       0.018248   -0.040497    0.018224
O      -1.345253   -0.511455    0.019684
C      -1.544760   -1.824774    0.001707
C      -2.722754   -2.520537   -0.001170
C      -4.116975   -1.979076    0.015498
C      -2.259816   -3.862022   -0.023435
N      -0.953192   -3.977389   -0.034424
O      -0.485574   -2.643508   -0.017135
H       0.989785    1.874041    0.040835
H      -0.552524    1.860092   -0.837305
H      -0.541662    1.833597    0.936986
H       0.525866   -0.417510   -0.876128
H       0.536891   -0.443917    0.894537
H      -4.687621   -2.291591   -0.866233
H      -4.674362   -2.311332    0.898519
H      -4.098169   -0.886342    0.027628
H      -2.852723   -4.767661   -0.033025
