23

C       0.003557    1.603127    0.020645
C       0.089439    0.080950    0.044089
C       1.113067   -0.670131   -0.803753
C       2.404998   -0.804758    0.027278
C       2.157573   -0.141372    1.377406
C       0.702975   -0.683534    1.266214
C      -0.121256   -0.959171    2.497077
C       1.255726   -1.765461    0.223903
C       1.144687   -3.252398    0.145147
H       0.983822    2.073999    0.134845
H      -0.415388    1.949334   -0.931002
H      -0.647356    1.976869    0.819803
H      -0.904489   -0.343488   -0.148276
H       1.138355   -0.776558   -1.882274
H       3.353156   -1.007130   -0.456210
H       2.702827   -0.657892    2.174105
H       2.301690    0.939371    1.488445
H      -0.364873   -0.027004    3.021664
H      -1.066788   -1.452965    2.245558
H       0.414402   -1.602438    3.204288
H       0.100629   -3.579841    0.070523
H       1.671435   -3.631904   -0.737735
H       1.581613   -3.741947    1.023891
