15

C      -0.098383    1.547828   -0.011335
C       0.027491    0.021674   -0.019527
N       0.796388   -0.487443   -1.155464
C       1.754256   -1.161046   -0.665377
C       2.825542   -1.884795   -1.397046
O       1.833268   -1.247376    0.717595
C       0.763117   -0.509032    1.210499
O       0.556766   -0.372266    2.375138
H       0.888891    2.018129   -0.015509
H      -0.641991    1.879724   -0.898400
H      -0.635738    1.870463    0.883956
H      -0.977517   -0.419438   -0.035724
H       3.808737   -1.502852   -1.104587
H       2.802421   -2.950043   -1.146391
H       2.683150   -1.755464   -2.469572
