20

O       0.024689    1.457121    0.031806
C      -0.020025    0.038727   -0.022002
C       0.704017   -0.553079    1.191904
O       0.028236   -0.160085    2.378976
C      -1.281533   -0.723928    2.447055
C      -2.162456   -0.235638    1.292280
C      -1.455023   -0.479215   -0.029447
C      -2.194849   -0.548527   -1.305735
N      -1.721207   -1.790372   -0.654236
H      -0.052038    1.693993    0.964740
H       0.485786   -0.259754   -0.949604
H       0.755755   -1.651203    1.118650
H       1.719458   -0.153329    1.263641
H      -1.209936   -1.822657    2.422287
H      -1.689204   -0.427468    3.417085
H      -3.124636   -0.756061    1.304402
H      -2.356772    0.837308    1.408810
H      -3.274485   -0.424422   -1.315270
H      -1.691644   -0.205997   -2.206411
H      -0.888480   -2.127851   -1.134231
