13

C      -0.039475    1.504712   -0.000286
C      -0.017173    0.002000    0.030498
N      -0.254043   -0.632413   -1.127817
C      -0.233630   -1.962987   -1.097444
N      -0.003676   -2.748904   -0.043264
C       0.230611   -2.106148    1.103215
C       0.235645   -0.720577    1.196670
H       0.162886    1.934770    0.983167
H       0.705390    1.876971   -0.710618
H      -1.014719    1.858862   -0.348816
H      -0.426773   -2.468449   -2.041318
H       0.420971   -2.725234    1.977495
H       0.428585   -0.221306    2.139339
