19

C      -0.206869    1.490369    0.018935
C       1.224138    1.051104   -0.070484
C       0.109970    0.008685    0.001913
C      -0.098871   -0.762282    1.306822
C       0.152233   -2.261029    1.190665
O      -0.988932   -3.056528    0.850769
C       0.068267   -2.913663   -0.122795
C      -0.195374   -2.075385   -1.317322
C      -0.160665   -0.742465   -1.247379
H      -0.557362    1.908458    0.957213
H      -0.671359    1.923921   -0.860644
H       1.744657    1.173780   -1.014006
H       1.856025    1.163701    0.804242
H       0.538371   -0.341636    2.091494
H      -1.136247   -0.638491    1.639750
H       0.785462   -2.707847    1.956633
H       0.624786   -3.835071   -0.293289
H      -0.392041   -2.576167   -2.260247
H      -0.313725   -0.148153   -2.146029
