15

N       0.101316    1.456513    0.104266
C       0.079532    0.040326   -0.002632
C      -1.194698   -0.687449    0.241070
O      -2.306832    0.123922    0.499781
C      -3.528196   -0.352538    0.118490
O      -4.532400    0.233903    0.363779
C      -0.611072   -0.727340   -1.175047
C      -1.230770    0.033486   -2.212692
N      -1.722616    0.666702   -3.047721
H       0.660757    1.884805   -0.624670
H      -0.832864    1.848170    0.069579
H       0.981183   -0.450683    0.352771
H      -1.178597   -1.615025    0.806106
H      -3.459961   -1.315041   -0.418650
H      -0.169529   -1.667092   -1.489931
