18

O      -0.001031    0.111485    0.763652
C      -0.026915    1.167822    0.178081
C      -1.321232    1.870004   -0.200348
C      -1.085252    3.182766   -0.928914
C       0.032799    3.245246   -2.018283
C       0.079860    4.778992   -1.822310
C       0.046547    4.130835   -0.418116
N       1.108736    3.171235   -0.941386
C       1.248932    1.896191   -0.236987
H      -1.914121    1.178538   -0.812607
H      -1.902019    2.025586    0.717775
H      -2.028011    3.674918   -1.193218
H       0.114532    2.675360   -2.946737
H       1.020929    5.255970   -2.094373
H      -0.801401    5.344673   -2.127801
H       0.144634    4.614253    0.556645
H       1.850593    2.060341    0.666081
H       1.836241    1.213452   -0.864235
