16

C       0.069440    1.542741    0.052809
C      -0.001659    0.028052   -0.008126
C       0.768094   -0.652640   -1.167050
N       1.591562   -1.688255   -0.530865
C       1.430463   -1.534749    0.712319
O       0.610057   -0.538135    1.164532
O      -1.358825   -0.426588   -0.093376
C      -2.162525   -0.297292    0.991332
O      -3.314332   -0.608554    0.958083
H       1.112543    1.866383    0.078554
H      -0.413468    1.967765   -0.830990
H      -0.434127    1.927190    0.943558
H       0.067839   -1.093093   -1.880146
H       1.409751    0.053315   -1.703891
H       1.898448   -2.117059    1.497127
H      -1.644637    0.094951    1.880660
