19

C       0.137269    1.439855    0.013097
N      -0.130218    0.023271   -0.178372
C       0.558303   -0.721816   -1.088055
N       0.713917   -1.994740   -1.069151
C       1.396033   -2.334695   -2.300357
C       2.372549   -3.478257   -2.234315
C       0.633317   -2.003579   -3.574545
C       1.612177   -1.009961   -3.006394
O       1.077090   -0.018659   -2.140766
H       1.098492    1.639763    0.507710
H       0.140669    1.940155   -0.956240
H      -0.662754    1.869290    0.620647
H      -0.370481   -0.510465    0.642917
H       1.849786   -4.412146   -2.003211
H       2.894256   -3.607995   -3.187342
H       3.117545   -3.307552   -1.450643
H       0.946274   -2.502568   -4.486353
H      -0.428340   -1.790180   -3.503353
H       2.495284   -0.672297   -3.533738
