16

C       0.015551    1.476385    0.084298
N      -0.012126    0.043585   -0.137001
C      -1.144926   -0.718308   -0.042670
C      -1.143035   -2.101043    0.016868
N      -2.291525   -2.808624    0.067872
C      -3.448066   -2.200885    0.064692
C      -3.605853   -0.759659    0.010983
O      -4.636935   -0.109840    0.006978
N      -2.355377   -0.095168   -0.036991
H       1.048613    1.818331    0.007329
H      -0.557128    2.006391   -0.685969
H      -0.370636    1.768476    1.071489
H       0.843018   -0.456585    0.040146
H      -0.206985   -2.648196    0.019145
H      -4.356590   -2.793540    0.107144
H      -2.426281    0.912114   -0.076695
