22

C      -0.699318    1.471924    0.703253
C      -0.085462    0.196897    0.113186
C       0.875261   -0.480932    1.073773
C       0.353271   -1.373272    2.163730
C       1.169515   -1.966257    1.028810
C       0.563729   -2.928844    0.030739
O       1.942662    0.332691    1.501907
C       2.931791    0.569358    0.520250
H       0.081454    2.180247    0.992837
H      -1.359362    1.962272   -0.018686
H      -1.285730    1.244251    1.599492
H      -0.878855   -0.507268   -0.155749
H       0.433527    0.435213   -0.824343
H       0.819011   -1.286677    3.138518
H      -0.713294   -1.576938    2.182202
H       2.195158   -2.199462    1.304644
H      -0.483458   -2.694531   -0.181573
H       1.105679   -2.918565   -0.921745
H       0.593230   -3.953787    0.417482
H       3.329874   -0.369635    0.109334
H       2.559716    1.181375   -0.313673
H       3.742615    1.112536    1.012184
