13

N      -0.016489    1.175202    0.394373
C       0.002131   -0.022028    0.011918
O       1.119374   -0.699894   -0.430414
C       0.759191   -1.941409   -1.058478
C       1.637941   -3.013725   -0.578547
N       2.318663   -3.881514   -0.238441
C      -0.713148   -2.164251   -0.720170
O      -0.938457   -2.155286    0.676630
C      -1.171218   -0.938185   -0.059877
H       0.907622    1.604447    0.322992
H       0.886603   -1.839970   -2.143814
H      -1.327052   -2.816204   -1.332511
H      -2.182048   -0.550872   -0.071728
