17

O       0.037107    0.007428   -0.720470
C       0.032001    1.081718   -0.184968
C      -1.295348    1.817739    0.105031
O      -1.801937    1.768662    1.423314
C      -1.030754    2.392917    2.453814
C      -0.448655    3.710075    2.020649
C       0.695923    3.787508    1.340389
C       1.583755    2.595965    1.074789
O       1.227313    1.715625   -0.012174
H      -1.204188    2.848564   -0.258534
H      -2.037230    1.290723   -0.495805
H      -1.725734    2.516611    3.287915
H      -0.236281    1.708054    2.784973
H      -1.046615    4.603167    2.181591
H       1.037661    4.745801    0.958858
H       2.584091    2.933468    0.798622
H       1.685347    1.985310    1.978448
