14

N      -0.179079    1.303130    0.011863
C      -0.016167    0.055176    0.002757
O      -1.139713   -0.728687    0.008218
C      -1.037371   -2.080647    0.000822
N       0.165480   -2.647406   -0.009418
C       0.177911   -3.982488   -0.016105
C      -0.985302   -4.738184   -0.012501
C      -2.178504   -4.020042   -0.001526
N      -2.220643   -2.689838    0.005182
H       0.729093    1.764734    0.006044
H       0.910808   -0.516216   -0.009286
H       1.158786   -4.451819   -0.024531
H      -0.966419   -5.820149   -0.017873
H      -3.139911   -4.528507    0.002028
