15

O      -0.102789   -0.072227    0.320822
C      -0.082270    1.125868    0.166727
C       1.152133    1.880773    0.022922
C       2.147818    2.545433   -0.106096
C      -1.351338    1.979055    0.062256
C      -1.649112    2.352767   -1.432527
O      -2.968893    1.882994   -1.637029
C      -3.153982    0.851377   -0.698082
O      -2.495795    1.273806    0.478902
H       3.040594    3.112474   -0.217045
H      -1.234586    2.869332    0.689227
H      -1.627117    3.429102   -1.613199
H      -0.940741    1.862415   -2.115041
H      -4.221038    0.740569   -0.491776
H      -2.722474   -0.096831   -1.057952
