18

C       0.021414    1.512664    0.048004
C      -0.032180    0.012443    0.076327
N       0.536720   -0.802684   -1.092354
C      -0.320339   -1.938622   -0.558080
C       0.387405   -2.223392    0.773558
C       0.689430   -0.749249    1.216248
O       2.063251   -0.441961    1.258800
C      -1.308520   -0.820947   -0.169241
O      -2.473453   -0.587479   -0.307587
H       1.055317    1.861551    0.116444
H      -0.434019    1.915050   -0.861878
H      -0.530173    1.917612    0.902325
H       0.127970   -0.457748   -1.961521
H      -0.565835   -2.759308   -1.229130
H      -0.247498   -2.767106    1.477596
H       1.321028   -2.774825    0.638736
H       0.284984   -0.502518    2.200304
H       2.386605   -0.576651    0.357102
