21

O      -0.084398    1.444539   -0.082272
C       0.009949    0.032433    0.040441
C      -1.394850   -0.542598   -0.033949
C      -2.120593   -0.286508   -1.371230
C      -3.272721   -1.303302   -1.348278
C      -2.653018   -2.535982   -0.694685
C      -3.394903   -3.774390   -0.442234
O      -2.461624   -3.693001   -1.522839
C      -1.440613   -2.079418    0.126602
H       0.804413    1.810172   -0.055721
H       0.622288   -0.398956   -0.769558
H       0.482017   -0.252779    0.994990
H      -1.983926   -0.079845    0.768893
H      -2.446952    0.749039   -1.481039
H      -1.441272   -0.509842   -2.204494
H      -4.092155   -0.925449   -0.723597
H      -3.683805   -1.543694   -2.331570
H      -3.101651   -4.424464    0.382326
H      -4.443323   -3.848480   -0.733028
H      -0.546233   -2.544779   -0.304686
H      -1.496537   -2.392345    1.173104
