21

C       0.099139    1.097024    0.808000
C       0.069678   -0.021068   -0.220267
O       1.025406   -0.261168   -0.926608
C      -1.200819   -0.844890   -0.281747
C      -1.381998   -1.847513   -1.461042
C      -1.442004   -3.002903   -0.454901
C      -0.183301   -3.036676    0.369285
C      -1.258277   -2.040364    0.720326
C      -1.941202   -1.987746    2.056364
H       1.097924    1.532175    0.859601
H      -0.623447    1.874033    0.531396
H      -0.199308    0.726078    1.794781
H      -2.074356   -0.199200   -0.145991
H      -2.321069   -1.683312   -1.993569
H      -0.557767   -1.874960   -2.177487
H      -2.103935   -3.858482   -0.520227
H      -0.103409   -3.871005    1.059482
H       0.761886   -2.714918   -0.059070
H      -1.366219   -1.404550    2.786741
H      -2.937197   -1.535509    1.980928
H      -2.062667   -2.994094    2.470985
