13

N      -0.059776    0.939677   -0.689024
C      -0.017018   -0.036544    0.114931
N       1.169815   -0.550961    0.680891
C       1.507943   -1.759322    0.411981
C       0.734235   -2.767100   -0.297449
C      -0.617972   -2.797931   -0.336748
C      -1.472650   -1.826853    0.331779
N      -1.209353   -0.603883    0.603833
H       0.889442    1.258996   -0.891031
H       2.481928   -2.085650    0.784785
H       1.291626   -3.609562   -0.698476
H      -1.112436   -3.664208   -0.768449
H      -2.441383   -2.202992    0.669879
