14

N       0.083512    1.395014   -0.150366
C      -0.015534    0.005617    0.022551
C      -1.052923   -0.878485    0.186675
O      -2.367899   -0.505029    0.297526
C      -3.325831   -1.366714   -0.152432
O      -4.485433   -1.111533   -0.042485
N      -0.624971   -2.170089    0.255083
C       0.685760   -2.096209    0.135208
N       1.101940   -0.811213   -0.009032
H      -0.742641    1.753711   -0.615983
H       0.169208    1.889846    0.733431
H      -2.898235   -2.275301   -0.599798
H       1.367211   -2.932039    0.163118
H       2.043250   -0.481492   -0.146589
