20

C      -0.176458    1.371865    0.024454
O       0.094206   -0.012526    0.063439
C       0.726247   -0.529625   -1.089357
C       1.319406   -1.889036   -0.738144
C       2.064813   -2.471073   -1.943802
C       1.313677   -2.385832   -3.269716
O       1.611505   -3.073972   -4.227985
N       0.326093   -1.438488   -3.346136
C      -0.271876   -0.698789   -2.245579
H       0.733316    1.956018   -0.182834
H      -0.935161    1.636480   -0.726308
H      -0.556469    1.650364    1.010209
H       1.534895    0.148986   -1.411350
H       1.987799   -1.786984    0.121698
H       0.502532   -2.553201   -0.430387
H       3.012347   -1.938218   -2.096622
H       2.327615   -3.520362   -1.792251
H      -0.150128   -1.429644   -4.236958
H      -1.160629   -1.209768   -1.845358
H      -0.597781    0.276754   -2.621137
