15

O       0.388601    0.785571    0.758634
C      -0.178336   -0.243470   -0.003452
C      -1.646202   -0.029263   -0.364831
C      -1.757324   -0.834310   -1.683495
O      -0.443310   -0.716245   -2.304314
C       0.472493   -0.340548   -1.382516
O       1.615268   -0.087910   -1.639405
C      -2.097488   -2.238644   -1.483256
C      -2.393209   -3.388941   -1.304645
H       1.299202    0.881369    0.444571
H      -0.053341   -1.224292    0.486244
H      -2.352975   -0.373831    0.389120
H      -1.812758    1.033747   -0.559933
H      -2.460485   -0.378036   -2.384441
H      -2.652758   -4.408515   -1.155779
