18

C      -0.155197    1.548771    0.136425
C       0.051450    0.054813    0.034494
C      -1.176791   -0.887390    0.193704
C      -0.419364   -1.683119    1.302351
C       0.790514   -0.725853    1.155891
O       1.930950   -1.288268    0.517967
C       1.884501   -1.030236   -0.825210
N       2.697505   -1.433991   -1.694668
O       0.823173   -0.248903   -1.134861
H       0.805874    2.071150    0.157236
H      -0.727203    1.913725   -0.722084
H      -0.708945    1.796593    1.047136
H      -2.079628   -0.378155    0.537706
H      -1.409465   -1.444688   -0.714792
H      -0.890027   -1.661097    2.287288
H      -0.174225   -2.717110    1.053654
H       1.116585   -0.185599    2.046730
H       3.418484   -2.002846   -1.257621
