14

C      -0.874336    1.642698   -0.508536
C      -0.149396    0.305777   -0.290771
C      -1.070008   -0.761377    0.101930
N      -1.802758   -1.606362    0.394736
C       0.707147   -0.105756   -1.525845
C       1.253687   -1.514455   -1.544272
O       0.932996    0.702635   -2.388981
H      -0.149249    2.401573   -0.804575
H      -1.615201    1.552684   -1.305806
H      -1.379731    1.957155    0.406893
H       0.575070    0.414582    0.530878
H       1.738814   -1.758168   -0.592915
H       0.432972   -2.228830   -1.668590
H       1.961592   -1.620600   -2.366397
