18

O       0.321076    1.277374    0.427652
C       0.093818   -0.064860    0.111790
C      -1.413546   -0.418829    0.084518
C      -1.604727   -1.926657   -0.137869
C      -0.670139   -2.499096   -1.199184
C      -0.637905   -2.047217   -2.628932
N       0.433983   -1.686831   -1.704912
C       0.588263   -0.368011   -1.296181
O       1.010278    0.514129   -2.014948
H       0.698488    1.664420   -0.379724
H       0.599722   -0.719133    0.838452
H      -1.872099   -0.107746    1.026841
H      -1.890540    0.171427   -0.707418
H      -1.388294   -2.449102    0.801110
H      -2.646331   -2.159218   -0.385136
H      -0.382467   -3.534768   -1.028762
H      -0.374940   -2.750132   -3.413901
H      -1.305276   -1.245809   -2.935766
