20

C      -0.013813    1.458265   -0.136423
C       0.041675   -0.030162    0.091951
N       0.221548   -0.665709    1.174326
O      -0.146167   -0.680776   -1.084499
C      -0.109411   -2.078377   -1.047711
C       1.172811   -2.832067   -1.175815
C       0.102509   -2.996056   -2.237822
C      -0.999276   -3.929106   -1.715185
C      -1.237033   -2.954519   -0.509411
H       0.757198    1.758859   -0.852525
H      -0.980144    1.736759   -0.567897
H       0.131778    2.003506    0.797290
H       0.340063   -0.017765    1.950095
H       2.016969   -2.221637   -1.479451
H       1.418321   -3.642679   -0.493244
H       0.292612   -2.750973   -3.275382
H      -1.865500   -3.993747   -2.376850
H      -0.674197   -4.942936   -1.460840
H      -1.098335   -3.340942    0.502609
H      -2.208920   -2.460275   -0.575237
