18

O      -0.050616    1.253046   -0.459184
C      -0.102005   -0.162418   -0.429560
C      -1.245138   -0.544348    0.517963
C      -1.415709   -1.985939    0.639782
C      -1.524762   -3.182486    0.721258
C      -1.689896   -4.627261    0.839563
N      -2.741699   -5.141452   -0.032985
C      -2.545281   -6.205492   -0.855656
O      -1.530408   -6.867218   -0.911208
H       0.666474    1.517885   -1.042236
H      -0.296826   -0.586102   -1.425950
H       0.838276   -0.598723   -0.061329
H      -1.046247   -0.098565    1.500089
H      -2.168670   -0.080361    0.150556
H      -0.776880   -5.159101    0.553166
H      -1.898013   -4.894526    1.884763
H      -3.603729   -4.624293   -0.097823
H      -3.437485   -6.410260   -1.479434
