15

N       0.454392    1.498815    1.002903
C       0.102670    0.343417    0.589482
N      -1.282987    0.112237    0.518036
C      -2.009486   -1.009783    0.199099
O      -1.589268   -2.076380   -0.179333
N       0.916111   -0.742719    0.294214
C       1.051633   -1.317692   -1.032867
C       2.181699   -0.572240   -0.397358
H       1.468592    1.577026    1.033418
H      -1.805363    0.920534    0.826044
H      -3.090574   -0.804567    0.329674
H       1.044656   -2.400755   -1.069642
H       0.531987   -0.827150   -1.851380
H       2.414536    0.415979   -0.789236
H       3.023068   -1.109697    0.029374
