18

C      -0.054551    1.411189    0.877410
O      -0.048402    0.039369    1.194053
C       0.862921   -0.708412    0.419396
C       0.771412   -2.177456    0.792351
C       1.629184   -3.079705   -0.066955
C       0.481056   -2.534921    2.202335
N      -0.549100   -2.714940    1.153787
H      -0.328011    1.584363   -0.175019
H      -0.796044    1.891641    1.520008
H       0.927669    1.874619    1.057865
H       0.635835   -0.586295   -0.654949
H       1.893221   -0.343725    0.574202
H       2.692255   -2.831811    0.033754
H       1.487643   -4.122403    0.225942
H       1.358872   -2.989397   -1.125499
H       0.879470   -3.457480    2.616557
H       0.345037   -1.726815    2.913721
H      -1.199438   -1.934232    1.222428
