21

C       0.140049    1.498440    0.043468
C       0.025439   -0.007855   -0.042407
C      -0.115485   -0.625776   -1.231617
C      -0.110197   -2.127206   -1.368521
C      -1.325785   -2.674417   -0.665727
C      -1.479307   -2.573848    0.665019
C      -0.596546   -1.854209    1.569825
C      -0.548214   -2.359809    2.993274
C       0.070095   -0.718556    1.225903
H       1.068217    1.790232    0.550899
H       0.141329    1.957678   -0.948228
H      -0.684136    1.933817    0.620928
H      -0.231655   -0.028814   -2.132807
H      -0.099745   -2.421936   -2.420530
H       0.796276   -2.536833   -0.900058
H      -2.094623   -3.162885   -1.258826
H      -2.334483   -3.063649    1.128320
H      -0.144669   -3.378584    3.039571
H       0.070067   -1.720996    3.628902
H      -1.554084   -2.402698    3.429646
H       0.600840   -0.204712    2.027449
