18

C      -0.040099    1.448760    0.096372
O       0.024154    0.019738    0.021568
C       0.690475   -0.573057    1.050752
C       2.018192   -0.926231    1.136243
O       2.987871   -0.705480    0.198217
C       2.207056   -1.578975    2.380938
C       0.979457   -1.608292    3.007795
N       0.049578   -1.005610    2.199882
C      -1.352740   -0.815155    2.493352
H       0.963808    1.882865    0.165555
H      -0.527738    1.788949   -0.820082
H      -0.628122    1.776181    0.962390
H       2.544470   -0.450043   -0.618544
H       3.131564   -1.988966    2.754620
H       0.689601   -2.018268    3.962019
H      -1.539431    0.119345    3.037605
H      -1.914981   -0.791191    1.557436
H      -1.716029   -1.648397    3.099555
