20

C      -0.035276    1.573054    0.007983
C       0.010280    0.050083   -0.000489
O      -1.342415   -0.407729    0.063123
C       0.694450   -0.497513   -1.272691
C       0.809168   -2.028067   -1.215631
C       1.422316   -2.469684    0.114909
O       0.717008   -1.919857    1.224660
C       0.761091   -0.498543    1.222445
H       0.970875    2.000168   -0.047866
H      -0.610954    1.934486   -0.849324
H      -0.522235    1.935922    0.918003
H      -1.309223   -1.295019    0.441956
H       0.120629   -0.184888   -2.150973
H       1.694868   -0.053209   -1.360520
H      -0.187341   -2.473258   -1.316888
H       1.414874   -2.406938   -2.046302
H       1.381113   -3.555759    0.237233
H       2.480618   -2.161690    0.166607
H       1.804997   -0.145242    1.231755
H       0.270578   -0.173757    2.144861
