21

C      -0.066342    1.635980   -0.053650
C       0.024944    0.109270    0.011541
C      -1.330990   -0.578158    0.071327
C      -1.296830   -2.112985    0.132887
C      -2.556362   -2.449753    0.939053
C      -2.545047   -3.743409    1.748222
C      -2.721484   -1.207460    1.817547
O      -3.361023   -1.097075    2.824108
O      -2.014184   -0.176819    1.284921
H       0.929949    2.086378   -0.083068
H      -0.606941    1.962296   -0.948987
H      -0.593957    2.029146    0.819142
H       0.555006   -0.277753   -0.868284
H       0.604566   -0.198962    0.890274
H      -1.953456   -0.243804   -0.771173
H      -1.271421   -2.565119   -0.861070
H      -0.403222   -2.442562    0.676907
H      -3.427236   -2.452720    0.267378
H      -1.662212   -3.792247    2.393921
H      -3.429963   -3.792758    2.387403
H      -2.535861   -4.618192    1.091729
