17

C      -0.006391   -1.203234   -0.070158
C       0.005367   -0.003639    0.018203
C       0.033266    1.445137    0.086832
C      -0.358393    2.086596    1.448238
C       0.668045    1.454595    2.422294
C       1.696978    2.284188    1.637345
C       0.626743    3.353339    1.341660
O       1.047163    3.521856   -0.016031
C       1.437800    2.124037    0.086073
H      -0.023097   -2.262009   -0.148824
H      -0.541779    1.871060   -0.740522
H      -1.416913    2.168199    1.685463
H       0.563735    1.841826    3.439832
H       0.745302    0.366431    2.441640
H       2.709964    2.510389    1.963827
H       0.419664    4.265855    1.897925
H       2.184360    1.807976   -0.639702
