17

C      -0.135329    1.331914    0.174516
O      -0.114685   -0.005717   -0.283534
C      -1.342983   -0.663151   -0.131458
C      -1.161904   -2.100897   -0.627129
C      -0.985057   -2.601530    0.758439
C      -1.577544   -1.266213    1.310637
N      -3.030480   -1.477689    1.422239
C      -3.270880   -2.419272    0.603650
N      -2.143734   -3.065943   -0.021201
H       0.856653    1.748513   -0.012761
H      -0.883890    1.929768   -0.366083
H      -0.351914    1.398450    1.250174
H      -2.173905   -0.060564   -0.525967
H      -0.704818   -2.396731   -1.562823
H      -0.295153   -3.313653    1.195013
H      -1.135409   -0.750147    2.158997
H      -4.264745   -2.781192    0.362701
