19

C       0.028283    1.469327   -0.021578
N       0.059674    0.014696   -0.003867
C       0.524890   -0.544425   -1.271626
C       0.695724   -2.034302   -1.212726
C       0.658372   -2.723219   -0.076073
C       0.464762   -2.054545    1.256419
C       0.739742   -0.541915    1.157952
C       2.202660   -0.264324    1.150461
N       3.327919   -0.002550    1.098293
H       1.026032    1.927649   -0.136844
H      -0.597534    1.804377   -0.854395
H      -0.416430    1.841327    0.906933
H      -0.216413   -0.286395   -2.039787
H       1.477416   -0.082459   -1.600989
H       0.867375   -2.533388   -2.161818
H       0.775475   -3.802905   -0.080809
H      -0.564169   -2.190896    1.612065
H       1.121813   -2.498075    2.012788
H       0.334976   -0.046577    2.047686
