19

C       0.135994    1.511208    0.481555
C      -0.076888    0.090662    0.015286
C      -1.262335   -0.524065    0.161124
C      -1.564194   -1.913452   -0.339488
C      -0.680848   -2.980159    0.289787
O      -0.023841   -3.877053   -0.611439
C       0.771785   -2.914088    0.111341
C       1.432994   -1.827002   -0.655836
C       1.076008   -0.534264   -0.651938
H       0.937014    1.570939    1.228439
H       0.437439    2.157521   -0.352588
H      -0.772554    1.928507    0.922714
H      -2.069798    0.019748    0.645396
H      -2.618485   -2.157759   -0.180556
H      -1.380077   -1.965051   -1.419926
H      -1.065525   -3.457259    1.191386
H       1.406088   -3.381122    0.868270
H       2.334235   -2.115943   -1.192864
H       1.726249    0.161458   -1.182696
