13

O       0.242170    1.281675    0.058200
C       0.029413   -0.083410   -0.072670
C      -0.076598   -0.769137    1.311581
O      -1.402215   -1.266010    1.017981
C      -1.443643   -0.596329   -0.259544
C      -2.461754    0.448188   -0.340336
N      -3.254545    1.282296   -0.440760
C       0.877472   -1.836042    1.602453
N       1.646103   -2.671162    1.817204
H       0.314400    1.686542   -0.812968
H       0.728774   -0.567970   -0.761056
H      -0.086822   -0.037047    2.126460
H      -1.587951   -1.311601   -1.076409
