23

C       3.922255    0.197134    0.351368
C       2.462004   -0.272168    0.406341
C       1.940414   -0.693016   -0.955032
N       2.129975   -2.030465   -1.536685
C       2.814511   -3.080293   -0.800450
C       0.769806   -1.605946   -1.172726
C       0.033414   -2.228335    0.001336
C      -0.127243   -1.358861   -2.373153
H       4.587075   -0.610688    0.029400
H       4.042242    1.024108   -0.356833
H       4.263559    0.543646    1.331787
H       2.364656   -1.076542    1.139997
H       1.831122    0.548244    0.773286
H       2.076218    0.095756   -1.699197
H       2.690274   -3.069967    0.292035
H       2.462101   -4.051617   -1.163666
H       3.887125   -3.018124   -1.013750
H       0.661096   -2.391119    0.877984
H      -0.798348   -1.583748    0.306314
H      -0.395319   -3.195401   -0.287279
H      -0.591152   -2.293121   -2.711455
H      -0.932262   -0.656682   -2.126346
H       0.450916   -0.950598   -3.205354
