15

N      -0.015783   -1.145699   -0.183350
C      -0.052540    0.005226   -0.094224
C      -0.092644    1.437154    0.018803
N      -1.138513    2.137556   -0.163056
C      -0.725541    3.530445    0.049923
C      -1.062501    4.085868    1.462933
C       0.429342    3.889809    1.887800
C       0.778684    3.434847    0.452409
O       1.091214    2.024671    0.332113
H      -1.024787    4.142827   -0.803010
H      -1.387211    5.128400    1.451810
H      -1.798247    3.493411    2.009011
H       0.943857    4.796923    2.211174
H       0.601349    3.109477    2.631878
H       1.542548    3.991429   -0.089842
