12

C      -0.008059    1.538044    0.067644
C       0.014663    0.046014    0.023341
C      -0.000653   -0.782038   -1.064271
O       0.029820   -2.080610   -0.682745
N       0.067217   -2.129143    0.694653
C       0.058246   -0.883824    1.101373
C      -0.041964   -0.495419   -2.448698
N      -0.076291   -0.222283   -3.573192
H       0.883262    1.930878    0.567685
H      -0.044868    1.959177   -0.939489
H      -0.880086    1.902462    0.620392
H       0.083006   -0.676738    2.162292
