17

N       0.018268    1.333737    0.194680
C      -0.076539   -0.020668    0.021180
N      -1.202627   -0.630177    0.021731
C      -1.249586   -2.070314   -0.153071
C      -0.070531   -2.726429   -0.850844
C       0.480283   -2.137189   -2.101759
C       1.272234   -2.006420   -0.796264
C       1.281943   -0.684166   -0.150043
O       2.286236   -0.132404    0.257873
H       0.925036    1.655197    0.500275
H      -0.790391    1.791015    0.585496
H      -1.383227   -2.530126    0.837610
H      -2.166633   -2.307643   -0.708956
H      -0.028380   -3.807786   -0.758271
H       0.907978   -2.799450   -2.845225
H       0.021015   -1.239405   -2.500312
H       2.195424   -2.566503   -0.707508
