15

C       0.038050    1.459548   -0.075924
C       0.036895   -0.027953   -0.024312
O       0.610698   -0.812466   -1.110101
C       0.125084   -1.830718   -0.204585
C       0.482110   -1.033532    1.089876
N      -0.890959   -1.072689    1.689599
C      -1.164692   -1.031117    0.218709
C      -2.475057   -1.039855   -0.368964
N      -3.521790   -1.050171   -0.860760
H       1.063630    1.836707   -0.127299
H      -0.509575    1.812835   -0.954131
H      -0.440936    1.854323    0.824428
H       0.240459   -2.881554   -0.470079
H       1.399924   -1.040872    1.675110
H      -1.097025   -2.003512    2.060198
