16

O       0.037927    1.412756    0.015720
C      -0.028352    0.041941    0.052325
C       0.301598   -0.833899    1.313945
C      -0.439623   -1.928466    0.492741
C      -1.357926   -0.789713   -0.038120
C       0.522888   -2.157567   -0.696145
C       0.801950   -0.679744   -0.990350
O       1.491867   -0.141022   -1.819162
H       0.638964    1.632048   -0.714630
H       1.350830   -0.994454    1.577627
H      -0.266315   -0.496839    2.183282
H      -0.856822   -2.808402    0.976050
H      -2.083709   -0.448463    0.702602
H      -1.832691   -0.909690   -1.016076
H       1.438827   -2.695754   -0.432851
H       0.063303   -2.659113   -1.553553
