16

O      -0.193111    1.392370   -0.007555
C      -0.012826    0.042035    0.014549
C       0.048664   -1.019235   -1.010322
N       1.257195   -1.609038   -0.473565
C       0.929824   -0.957734    0.832290
C      -0.353976   -1.661732    1.360647
C      -1.068776   -1.040746    0.172235
C      -2.485847   -0.996139   -0.166431
O      -3.348758   -1.614584    0.417378
H       0.524215    1.791820   -0.514497
H      -0.250264   -1.042632   -2.050372
H       1.240720   -2.628865   -0.423591
H       1.764584   -0.708106    1.483983
H      -0.316672   -2.752519    1.448327
H      -0.705529   -1.226083    2.298549
H      -2.734613   -0.339592   -1.031866
