18

O      -0.900309    0.837841    0.876354
C      -0.347449    1.299707   -0.086718
C       1.122186    1.692066   -0.119372
N       1.328829    2.743050   -1.102322
C       1.468018    4.119847   -0.632817
C       2.627802    3.395342   -1.225280
C       3.826295    3.015398   -0.362070
C       4.487526    1.796880   -0.820893
C       5.015936    0.792932   -1.217541
H      -0.872970    1.464152   -1.053240
H       1.436910    1.930494    0.907314
H       1.685714    0.802798   -0.436131
H       0.932039    4.877037   -1.198437
H       1.488974    4.287793    0.444142
H       2.898140    3.607501   -2.258108
H       4.540340    3.848948   -0.382750
H       3.526346    2.902768    0.685575
H       5.490605   -0.093265   -1.559653
