24

C      -0.418194   -2.200665    6.242545
C      -0.006481   -2.878967    4.929761
C       0.888694   -1.981018    4.096472
C       2.384052   -1.979389    4.205441
C       3.142694   -2.879878    5.130775
C       4.648489   -2.959637    5.011472
C       4.025173   -2.258754    6.189562
N       1.720215   -2.446987    2.983511
C       1.756859   -3.854853    2.617476
H      -0.920966   -1.246244    6.051536
H      -1.105861   -2.830269    6.815397
H       0.455818   -1.994765    6.868635
H       0.477272   -3.834411    5.150109
H      -0.904472   -3.120900    4.345957
H       0.415025   -1.020518    3.882260
H       2.891838   -1.023129    4.062253
H       2.649891   -3.800307    5.421020
H       5.126656   -3.919267    5.173402
H       5.124124   -2.347343    4.252397
H       4.083365   -1.175681    6.224070
H       4.072833   -2.736162    7.161864
H       1.716595   -4.571712    3.449693
H       0.914152   -4.067166    1.951224
H       2.679483   -4.046168    2.060031
