19

C      -0.037020    1.487284    0.075178
N      -0.051574    0.044473    0.186792
C      -1.360761   -0.606832    0.096917
C      -1.178672   -1.855637    0.908906
C      -0.042676   -1.834623    1.601248
C       0.510830   -2.844325    2.550784
C       0.670569   -0.515128    1.325089
C       2.107683   -0.679165    1.025053
N       3.236294   -0.808456    0.813066
H       0.995805    1.848036    0.048053
H      -0.517429    1.787563   -0.860783
H      -0.559951    1.996408    0.906978
H      -2.172199    0.018274    0.518167
H      -1.628916   -0.804408   -0.950433
H      -1.912344   -2.652302    0.933676
H      -0.143434   -3.716365    2.622599
H       1.504780   -3.181118    2.234538
H       0.627762   -2.421431    3.556730
H       0.616631    0.126288    2.229486
