13

C      -0.010340    1.399881    0.008793
O      -0.033875   -0.033487    0.004544
C      -1.234146   -0.620912    0.012143
C      -1.279708   -2.032327    0.008099
N      -2.438266   -2.653250    0.015232
C      -3.498442   -1.842989    0.026025
F      -4.672388   -2.439165    0.033534
N      -3.521499   -0.529955    0.030348
N      -2.340795    0.101516    0.023075
H       1.045531    1.669730    0.001312
H      -0.516148    1.798872   -0.874366
H      -0.502154    1.793372    0.902264
H      -0.366666   -2.621315   -0.000906
