22

C      -0.069704    1.236761    0.664453
C      -0.068073   -0.182252    0.076372
C      -1.442178   -0.667447   -0.284116
C      -2.309992   -0.215340   -1.470906
C      -2.936530   -1.652406   -1.514233
C      -2.051584   -2.028736   -0.318093
C      -1.495565   -3.395298   -0.022891
O      -0.655900   -3.418185    1.128067
N      -2.423322   -1.085045    0.767874
H       0.946529    1.562523    0.906233
H      -0.493137    1.957462   -0.042880
H      -0.668164    1.282561    1.579829
H       0.563119   -0.202720   -0.822037
H       0.380716   -0.888244    0.784227
H      -2.998530    0.607007   -1.262297
H      -1.726282    0.013568   -2.366272
H      -4.012690   -1.724764   -1.337409
H      -2.678749   -2.193662   -2.428505
H      -2.320867   -4.117401    0.076312
H      -0.879204   -3.732243   -0.865119
H      -1.211172   -3.573903    1.897230
H      -1.847711   -1.354486    1.568611
