16

N      -0.156772    1.144984    0.435036
C      -0.012368   -0.039150    0.022104
N       0.982808   -0.814604   -0.559823
C       0.232194   -2.078118   -0.462091
C      -0.972606   -1.237480    0.059084
C      -1.674028   -1.579500    1.394578
N      -3.091247   -1.764959    1.047314
C      -3.174862   -1.496301   -0.185208
O      -2.056799   -1.156934   -0.880783
H       0.688187    1.705667    0.314688
H       1.980761   -0.689303   -0.475600
H       0.062909   -2.573474   -1.421783
H       0.625973   -2.793236    0.269458
H      -1.273038   -2.485238    1.860557
H      -1.573130   -0.756102    2.108871
H      -4.081015   -1.506997   -0.779755
