18

O      -0.011442    1.451441    0.009235
C      -0.025216    0.040356    0.002285
C      -1.461860   -0.452559    0.013480
O      -2.086260   -0.009723    1.191298
C      -3.435509   -0.446152    1.272097
C      -4.220417    0.013657    0.042487
C      -3.459345   -0.432917   -1.206828
O      -2.108746    0.002754   -1.147331
H       0.906213    1.737069    0.004336
H       0.456057   -0.374404   -0.896543
H       0.473003   -0.383404    0.887558
H      -1.454249   -1.563910    0.007481
H      -3.469048   -1.547529    1.349750
H      -3.840834   -0.030310    2.198103
H      -5.232180   -0.407048    0.049970
H      -4.298610    1.105498    0.049067
H      -3.494482   -1.533405   -1.295574
H      -3.882357   -0.007255   -2.120376
