14

C       0.000066   -1.238373   -0.218432
C       0.032291   -0.050767   -0.035070
C       0.077844    1.363881    0.145318
C       0.243304    2.336246   -1.023704
C       1.309942    2.231542    0.039306
O       1.275177    3.113522    1.125160
C      -0.052849    3.091747    1.618995
O      -0.629076    1.846002    1.270010
H      -0.028334   -2.289025   -0.369803
H       0.472915    1.888554   -1.983865
H      -0.399542    3.208236   -1.065760
H       2.303040    1.857892   -0.171346
H      -0.034631    3.190980    2.708407
H      -0.635022    3.916120    1.176868
