18

O      -0.051881    1.327069   -0.490651
C      -0.004853    0.050239    0.129010
C      -1.392423   -0.533526    0.100633
C      -1.889948   -1.229876   -1.137920
C      -1.585112   -2.024666    0.098893
C      -0.590259   -3.179740    0.330753
N      -1.652634   -3.805174    1.129240
C      -2.584119   -2.805432    0.939351
O      -3.718591   -2.652412    1.306618
H       0.802722    1.751176   -0.367786
H       0.691156   -0.623739   -0.398389
H       0.344227    0.128165    1.170999
H      -2.130052    0.026935    0.668512
H      -2.933875   -1.118767   -1.410299
H      -1.203855   -1.318040   -1.974531
H      -0.311688   -3.742448   -0.566517
H       0.308656   -2.929706    0.904425
H      -1.707702   -4.695959    1.597911
