23

O      -0.173930    1.530608    0.255846
C       0.034170    0.132554    0.088483
C      -1.334442   -0.515728   -0.052080
C      -2.101866   -0.131753   -1.361605
C      -2.526846   -1.501595   -1.939278
C      -1.272731   -2.203579   -2.511424
C      -0.479254   -2.612195   -1.227615
C      -1.361830   -2.065487   -0.080816
C      -2.775479   -2.317025   -0.650702
H       0.685522    1.961060    0.279226
H       0.648736   -0.062978   -0.803805
H       0.566343   -0.294073    0.955259
H      -1.916005   -0.183243    0.815745
H      -2.970231    0.494542   -1.139444
H      -1.470759    0.433204   -2.055142
H      -3.358433   -1.445741   -2.644812
H      -1.548572   -3.083671   -3.100566
H      -0.700086   -1.541629   -3.168405
H      -0.397513   -3.700774   -1.147862
H       0.540641   -2.219908   -1.213812
H      -1.147441   -2.518765    0.890050
H      -3.572797   -1.905702   -0.023635
H      -2.982807   -3.375668   -0.838497
