19

C      -0.311395    1.494542   -0.245585
C       0.097667    0.023281   -0.053931
C       0.906875   -0.527368   -1.174182
C       2.172448   -1.001775   -1.293784
C       2.361226   -1.404366   -2.661128
C       1.180444   -1.131954   -3.275340
O       0.816911   -1.274676   -4.555116
C      -0.574730   -1.180082   -4.849176
O       0.282350   -0.602534   -2.409102
H       0.570862    2.136554   -0.327328
H      -0.901099    1.617410   -1.158539
H      -0.914570    1.843921    0.598157
H       0.689048   -0.084602    0.861404
H      -0.806385   -0.584907    0.087833
H       2.896634   -1.068273   -0.496068
H       3.236118   -1.832875   -3.119792
H      -0.665031   -1.376334   -5.918074
H      -1.150640   -1.922420   -4.285575
H      -0.962123   -0.182079   -4.621819
