17

C      -0.048399    1.526437   -0.036507
O       0.231845    0.121060    0.036738
C       0.431720   -0.489557   -1.147643
O       0.383513    0.084346   -2.209277
C       0.716694   -1.944850   -0.989035
C       0.220779   -2.844238   -2.139493
C       1.660726   -2.552097   -2.046642
C       0.758029   -2.577384    0.360393
O       0.985654   -3.753300    0.528886
H       0.781594    2.058793   -0.506823
H      -0.956449    1.706467   -0.616633
H      -0.180061    1.854448    0.994319
H      -0.125757   -3.820051   -1.820456
H      -0.360251   -2.334389   -2.897841
H       2.087015   -1.837859   -2.740022
H       2.316656   -3.324512   -1.662959
H       0.565597   -1.898888    1.211470
