18

O      -0.016626   -0.076672   -0.021799
C      -0.020695    1.140033    0.049027
N      -1.192872    1.865212    0.193241
C      -1.267830    3.296920   -0.051955
C      -0.035920    3.947943    0.537770
C      -0.084101    5.363646    0.963341
N      -0.006257    4.285155    1.967417
C       1.236707    3.334765   -0.004549
N       1.134752    1.884227    0.040969
H      -2.009774    1.303662    0.010766
H      -1.331689    3.533999   -1.127301
H      -2.172264    3.696050    0.420604
H       0.803276    5.987057    0.891176
H      -1.021075    5.901226    0.837210
H      -0.917597    4.124107    2.390138
H       1.408732    3.691363   -1.032831
H       2.079951    3.662670    0.610321
H       1.964927    1.327513   -0.077908
