23

C       0.125477    1.120516   -0.639747
C       0.602223   -0.229081   -0.148133
C       1.937074   -0.413638    0.532052
C       0.659906   -0.622021    1.317326
C       0.326701    0.391114    2.402204
C       0.190271   -2.018645    1.663764
C      -1.309313   -2.240344    1.597338
C       1.074943   -3.191591    1.562317
O       0.809133   -2.594339    2.831092
H       0.447240    1.934164    0.015814
H       0.525043    1.328933   -1.638482
H      -0.967708    1.160223   -0.706537
H       0.326192   -1.048489   -0.809523
H       2.551394   -1.260241    0.249404
H       2.508056    0.479352    0.768330
H       0.751747    1.373294    2.183975
H      -0.753958    0.519611    2.527807
H       0.738091    0.052217    3.358021
H      -1.680822   -2.088341    0.578961
H      -1.559486   -3.255636    1.914493
H      -1.837566   -1.542681    2.254414
H       0.632206   -4.175806    1.405878
H       2.098021   -3.091573    1.207993
