21

C       0.289633    1.431641   -0.556561
C       1.513612    1.601842    0.387445
C       1.469992    0.079498    0.702694
C       0.057450    0.016085    0.056856
O      -0.034621   -1.099465   -0.803582
C       1.244766   -1.673696   -1.022066
C       1.975265   -1.238445   -2.322600
C       2.989921   -0.417217   -1.475916
C       2.293728   -0.895632   -0.162008
H      -0.523775    2.153160   -0.450230
H       0.563115    1.371011   -1.612557
H       2.433635    1.998324   -0.047883
H       1.275175    2.197889    1.271890
H       1.541970   -0.189044    1.758613
H      -0.789283   -0.016653    0.748919
H       1.158696   -2.754824   -0.874502
H       2.420404   -2.068013   -2.877799
H       1.343200   -0.665209   -3.004053
H       4.027659   -0.745536   -1.566422
H       2.969055    0.660273   -1.650451
H       2.938414   -1.520934    0.457484
