15

N      -0.077163    1.211788    0.046690
C      -0.071629   -0.043049    0.007725
O       1.035877   -0.879967    0.005502
C       0.419400   -2.188263   -0.059379
C      -0.673854   -2.002557   -1.132412
C      -1.225882   -1.012891   -0.046897
C      -0.698030   -2.051258    1.030110
C      -1.536698   -3.215084    1.238942
N      -2.199903   -4.146029    1.414096
H       0.874793    1.582556    0.068305
H       1.178757   -2.965323   -0.052003
H      -0.360392   -1.583877   -2.089437
H      -1.307749   -2.878887   -1.266555
H      -2.232083   -0.607387   -0.034985
H      -0.369903   -1.638429    1.986782
