20

C       0.130982    1.564590   -0.163710
C       0.019418    0.054065    0.062754
C      -1.423021   -0.481914    0.095499
O      -2.101746   -0.125273   -1.127168
C      -1.482613   -2.025151    0.199093
C      -2.688244   -2.352966    1.112095
C      -2.931687   -1.048731    1.830373
C      -2.238075   -0.043858    1.299732
H       1.178861    1.877130   -0.197064
H      -0.327194    1.850750   -1.115553
H      -0.353545    2.136842    0.635271
H       0.552108   -0.469736   -0.740688
H       0.513696   -0.219870    1.002967
H      -2.409494    0.782551   -1.042168
H      -1.559353   -2.463754   -0.797973
H      -0.560188   -2.393398    0.658411
H      -3.576464   -2.645919    0.536932
H      -2.480175   -3.181278    1.798802
H      -3.621175   -0.960021    2.663814
H      -2.274159    0.988265    1.633448
