11

O       0.116834    1.322157    0.155173
C       0.078394   -0.011218    0.067531
N       0.076306   -0.638974   -1.081595
O       0.030762   -2.003964   -0.741084
C       0.008050   -2.124752    0.579762
C       0.035719   -0.900918    1.188623
C       0.024079   -0.598303    2.619711
O      -0.013670   -1.442931    3.486440
H       0.140554    1.683718   -0.741792
H      -0.027555   -3.127711    0.976864
H       0.052658    0.483325    2.863380
