19

C       0.021240    1.535227    0.005025
C       1.271508    0.687345   -0.055424
O       2.107090    0.443216    1.032386
C       2.450565   -0.957491    1.146134
O       1.797036   -1.825068    0.263592
C       0.363532   -1.949833    0.302026
C      -0.292630   -0.868150    1.188925
C      -0.075114    0.034918   -0.027756
C      -0.232478   -1.191993   -0.935164
H      -0.258482    1.993416    0.948426
H      -0.196668    2.139226   -0.870225
H       1.778968    0.694832   -1.020771
H       3.513783   -1.073934    0.908832
H       2.276924   -1.226016    2.197743
H       0.115517   -3.004480    0.449713
H      -1.352037   -1.092284    1.346143
H       0.168012   -0.600674    2.139585
H       0.348463   -1.227902   -1.858996
H      -1.268508   -1.494217   -1.120704
