22

C      -0.129691    1.419216    0.076660
C      -0.152837   -0.085250   -0.194740
C       0.735461   -0.471411   -1.377349
O       1.729856    0.164507   -1.684552
N       0.337236   -1.592244   -2.046378
C       1.109333   -2.190329   -3.117631
C       1.453581   -3.639404   -2.808285
O       0.237862   -4.340506   -2.629117
C       0.423736   -5.691202   -2.275919
H       0.901612    1.765576    0.168028
H      -0.593227    1.974838   -0.744087
H      -0.669343    1.657351    0.997560
H       0.227513   -0.627978    0.681269
H      -1.176315   -0.442990   -0.356988
H      -0.460453   -2.113090   -1.719546
H       0.548719   -2.150198   -4.060416
H       2.016589   -1.593514   -3.231699
H       2.036277   -4.075736   -3.636343
H       2.068141   -3.698371   -1.895018
H       0.973846   -6.242567   -3.054129
H       0.976062   -5.792955   -1.328619
H      -0.565948   -6.139329   -2.159091
