16

C      -1.061428    1.015006   -0.457735
C      -0.175211   -0.155510   -0.189811
C       0.680389   -0.900806   -0.979068
N       1.272339   -1.860531   -0.206892
N       0.832053   -1.766568    1.011605
N      -0.042087   -0.741036    1.027498
C       1.015275   -0.792023   -2.413072
C       0.000232   -0.751080   -3.480643
O       0.689868    0.434773   -3.081366
H      -0.899321    1.814380    0.273491
H      -0.841105    1.409300   -1.449957
H      -2.121892    0.740028   -0.417130
H      -0.486019   -0.487846    1.896500
H       1.991971   -1.203071   -2.663640
H       0.247540   -1.122398   -4.473915
H      -1.054216   -0.792417   -3.212490
