23

C       0.455249    1.019474   -0.294715
O      -0.262688   -0.012869    0.351225
C       0.493775   -0.671020    1.318607
C      -0.013332   -1.998489    1.779973
C       1.268759   -1.928132    0.973984
C       1.309168   -2.445238   -0.464586
C       2.808514   -2.446909   -0.809475
C       3.469553   -2.892989    0.506299
C       2.647064   -2.184610    1.609300
H       1.340186    0.637534   -0.823399
H      -0.221707    1.480460   -1.017944
H       0.786320    1.787177    0.421428
H       0.939487   -0.003126    2.060644
H       0.039818   -2.234939    2.838296
H      -0.895831   -2.376584    1.272937
H       0.920207   -3.470968   -0.508060
H       0.698114   -1.840959   -1.139869
H       3.054828   -3.094549   -1.655854
H       3.136065   -1.431923   -1.068071
H       3.372313   -3.980227    0.609680
H       4.536714   -2.659230    0.557455
H       3.120430   -1.237046    1.894551
H       2.580821   -2.789323    2.519513
