17

N       0.360874   -0.571785    1.398958
C       0.142586    0.320957    0.697991
C      -0.094865    1.449134   -0.230106
N      -1.180073    2.313407    0.265492
C      -0.780741    3.366054    1.171407
C       0.193101    3.145315    2.276257
C       0.616177    3.977636    1.061183
C       1.485952    3.353825    0.045596
C       1.195229    2.189341   -0.541242
H      -0.466503    0.987078   -1.153017
H      -1.607335    2.746748   -0.546649
H      -1.604977    4.042675    1.370740
H       0.015988    3.676771    3.204783
H       0.660056    2.175862    2.400654
H       0.736708    5.044440    1.214422
H       2.389824    3.885181   -0.239649
H       1.853438    1.744874   -1.279786
