18

O      -0.083161   -0.018434   -0.159121
C       0.004980    1.190967   -0.109610
N       1.172244    1.881283    0.028299
C       2.433391    1.142144    0.109145
C       3.473041    1.970430    0.847980
O       3.661103    3.222688    0.196470
C       2.507460    4.009428    0.220642
C       1.742237    4.154413   -1.070435
C       1.180039    3.317345    0.065960
H      -0.872263    1.865641   -0.157308
H       2.233270    0.195549    0.616661
H       2.804509    0.906181   -0.897026
H       3.176246    2.120444    1.896546
H       4.441202    1.464483    0.829036
H       2.572054    4.857986    0.899317
H       1.259759    5.099425   -1.293708
H       2.155354    3.628391   -1.923458
H       0.339499    3.731867    0.612947
