20

C      -0.027640    1.576573   -0.215053
C       0.047317    0.088012    0.144520
C      -1.305735   -0.602450    0.062126
N      -2.059179   -0.641623   -1.273222
C      -1.123165   -1.416180   -2.190756
C      -1.351289   -2.639402   -1.330566
C      -2.625732   -2.008821   -0.827194
C      -1.484375   -2.112296    0.125577
O      -1.409803   -2.950868    1.218063
H       0.953623    2.053895   -0.135400
H      -0.393962    1.715292   -1.236451
H      -0.714531    2.106452    0.453447
H       0.784364   -0.417417   -0.488945
H       0.410206   -0.026690    1.174734
H      -1.995705   -0.128751    0.771131
H      -1.593876   -1.493725   -3.175043
H      -0.118853   -0.996789   -2.306818
H      -1.155995   -3.689549   -1.513423
H      -3.668461   -2.289754   -0.805721
H      -0.502449   -3.263347    1.303741
