12

N      -0.097318    1.317253    0.007992
C       0.053868   -0.032821    0.002532
O       1.127588   -0.609172   -0.008681
C      -1.232032   -0.774147    0.010977
C      -1.404295   -2.119688    0.007856
O      -2.741390   -2.371842    0.018404
C      -3.319705   -1.145813    0.027519
N      -2.485284   -0.161756    0.023942
H       0.723613    1.897793    0.003300
H      -1.016246    1.727238    0.017717
H      -0.735942   -2.961772   -0.000768
H      -4.397761   -1.117584    0.036860
