15

O       0.012833   -0.044383    0.001157
C       0.010142    1.165397    0.023959
N      -1.083625    1.981756    0.145639
C      -0.841997    3.408969    0.025231
C       0.684041    3.490030   -0.092888
N       1.347390    2.939341    1.114714
C       1.206214    2.088631   -0.086958
C       1.288233    4.557259   -0.826624
C       1.783309    5.473165   -1.428926
H      -1.993908    1.590481    0.325285
H      -1.315429    3.827817   -0.870684
H      -1.194256    3.962365    0.902814
H       2.301074    3.297261    1.145250
H       2.077717    1.770370   -0.644262
H       2.225451    6.275711   -1.966141
