15

O      -0.092740    1.390179   -0.420968
C       0.005603    0.080056    0.131871
C      -1.347806   -0.538319    0.063792
C      -1.784359   -1.846604   -0.011568
N      -3.171343   -1.887125   -0.001698
C      -3.551707   -0.636832    0.071493
N      -2.487643    0.217933    0.126246
C      -0.971730   -3.002620   -0.086919
C      -0.254893   -3.968485   -0.151817
H       0.736786    1.847976   -0.256315
H       0.716672   -0.552801   -0.417207
H       0.353377    0.128607    1.176998
H      -4.573020   -0.286855    0.083688
H      -2.491614    1.225140    0.115699
H       0.363972   -4.828891   -0.210680
