15

C       0.043015    1.504406   -0.005242
C      -0.084350    0.021837    0.060775
C      -1.152624   -0.724210   -0.261943
N      -1.155916   -2.108043   -0.159999
C      -0.084626   -2.674886    0.261605
O      -0.013074   -4.004446    0.385900
C       1.146513   -1.954206    0.643963
N       2.193225   -2.533058    1.057227
O       1.060834   -0.585839    0.511756
H       0.857964    1.797877   -0.676553
H      -0.885964    1.948049   -0.368385
H       0.268937    1.922329    0.982243
H      -2.063506   -0.261814   -0.619271
H      -0.875698   -4.345182    0.105742
H       2.922735   -1.848801    1.264515
