21

O       0.061409    1.414108    0.194729
C       0.057865    0.019343   -0.013038
C      -1.365744   -0.535300   -0.065163
C      -1.388105   -2.064211   -0.181399
C      -2.718899   -2.649607   -0.695222
O      -3.874055   -1.885664   -0.391836
C      -4.015775   -1.477092    0.956266
C      -3.380112   -0.107912    1.192475
O      -1.965561   -0.110401    1.164352
H      -0.555898    1.560133    0.922596
H       0.561347   -0.171171   -0.966510
H       0.618399   -0.510357    0.775867
H      -1.898811   -0.067952   -0.906514
H      -0.588331   -2.398488   -0.854367
H      -1.145974   -2.460787    0.810306
H      -2.709054   -2.700938   -1.788553
H      -2.832463   -3.679276   -0.320247
H      -5.092512   -1.398146    1.150800
H      -3.602052   -2.221122    1.652643
H      -3.779504    0.587690    0.437807
H      -3.658652    0.262232    2.185623
