16

C      -0.016356    1.467690    0.010820
C       0.004679    0.014084    0.002568
C       0.038255   -1.191476   -0.004312
C       0.044721   -2.620609   -0.011817
N       1.241457   -3.238496   -0.022146
C       1.247643   -4.570317   -0.029224
C       0.098271   -5.358163   -0.026601
C      -1.135931   -4.716029   -0.015938
C      -1.167439   -3.328840   -0.008425
H       0.999270    1.877418    0.003512
H      -0.542408    1.861661   -0.866066
H      -0.525691    1.851844    0.901822
H       2.229905   -5.037994   -0.037488
H       0.174029   -6.439540   -0.032757
H      -2.059469   -5.285682   -0.013507
H      -2.104171   -2.784491   -0.000041
