19

C      -0.057245    1.491923    0.240369
C       1.235134    0.719318   -0.040193
C       2.289759    0.447690    1.025960
C       1.990694   -0.729515    1.923613
C       0.852951   -1.426027    1.942824
C      -0.325407   -1.071186    1.097036
C      -0.719279   -1.900026   -0.161600
O      -0.695153   -0.708723   -0.988146
C      -0.082604    0.019365    0.072508
H      -0.230517    1.896340    1.234649
H      -0.437359    2.103648   -0.571006
H       1.611727    0.848709   -1.049946
H       3.251498    0.257791    0.531749
H       2.465939    1.339798    1.645798
H       2.793085   -1.012328    2.601778
H       0.744284   -2.262495    2.629326
H      -1.208167   -0.881494    1.719142
H       0.040319   -2.626104   -0.475760
H      -1.707170   -2.370078   -0.157487
