15

N      -0.045577    1.421846   -0.106530
C      -0.014919    0.020972   -0.054570
C      -1.155772   -0.769418   -0.011375
N      -1.154780   -2.111384   -0.024521
C       0.016328   -2.721676   -0.081978
O       0.024636   -4.077357   -0.098676
C       1.240230   -2.048012   -0.122798
C       1.215971   -0.664006   -0.107383
O       2.336724    0.108245   -0.132068
H       0.808678    1.844815    0.229852
H      -0.851984    1.825052    0.350257
H      -2.132551   -0.291953    0.035293
H      -0.905110   -4.340308   -0.064984
H       2.171568   -2.602532   -0.161677
H       3.115390   -0.458019   -0.146147
