22

C       0.052806    1.563689   -0.018868
C       0.025648    0.034459   -0.000582
O       0.744204   -0.475851    1.122928
C      -1.400615   -0.526978   -0.071962
C      -1.477052   -2.048393   -0.108159
C      -1.217454   -2.880554    1.180264
C      -2.355971   -3.841234    0.745289
C      -2.874462   -2.725480   -0.201889
H       1.082189    1.925231    0.053054
H      -0.392801    1.959793   -0.937238
H      -0.512876    1.972012    0.828279
H       0.589448   -0.339398   -0.865261
H       0.290513   -0.175562    1.918418
H      -1.977822   -0.149320    0.786964
H      -1.889303   -0.117306   -0.967152
H      -0.836550   -2.423998   -0.916182
H      -0.216739   -3.288546    1.330439
H      -1.496018   -2.314276    2.075807
H      -1.971279   -4.699119    0.185706
H      -3.036540   -4.210515    1.516308
H      -3.641838   -2.112853    0.284270
H      -3.239321   -3.013415   -1.191557
