18

C      -0.004094    1.606773   -0.081024
C       0.081894    0.086683    0.044326
C       0.683186   -0.565525   -1.209476
C       0.911336   -2.040679   -0.994442
O       0.765297   -2.912734   -1.797293
O       1.366638   -2.365688    0.267119
C       1.422360   -1.393579    1.263996
C       2.225780   -1.892134    2.421973
N       0.853450   -0.268426    1.234238
H       0.993412    2.036837   -0.218050
H      -0.626665    1.894491   -0.933881
H      -0.433694    2.034209    0.828246
H      -0.936964   -0.304527    0.189690
H       0.059832   -0.439936   -2.096356
H       1.659295   -0.105632   -1.417494
H       3.248117   -2.120437    2.103953
H       2.240528   -1.138073    3.207695
H       1.793595   -2.821449    2.806562
