17

C       0.019755    1.390378   -0.099665
C       1.502105    1.821996    0.016576
C       2.118078    0.595972    0.650554
C       3.377574    0.350089    1.172510
C       3.674709   -0.928551    1.655814
C       2.715854   -1.939199    1.603797
C       1.442611   -1.704594    1.079105
C       1.169959   -0.427351    0.611937
O      -0.018192   -0.045377    0.066476
H      -0.590819    1.839665    0.692896
H      -0.433148    1.625372   -1.065118
H       1.942270    2.025976   -0.967093
H       1.614296    2.729539    0.616502
H       4.125529    1.136257    1.206769
H       4.654761   -1.133744    2.071894
H       2.957318   -2.927580    1.981147
H       0.688883   -2.481780    1.038377
