20

C      -0.278563    1.728561    0.068888
C       0.119471    0.250473    0.006374
C       1.098585   -0.084721   -1.163683
C       1.982772   -1.162996   -0.588233
C       1.866330   -1.249344    0.735536
C       0.883948   -0.235151    1.271883
N      -1.088294   -0.592387   -0.110953
C      -1.970730   -0.560680   -1.139767
O      -1.925848    0.188135   -2.096554
H       0.612700    2.354903    0.172097
H      -0.809734    2.015309   -0.840129
H      -0.932014    1.916074    0.927180
H       0.555483   -0.374938   -2.065435
H       1.692601    0.799705   -1.432285
H       2.651581   -1.759529   -1.198751
H       2.425781   -1.919447    1.378357
H       1.406198    0.605473    1.748010
H       0.201419   -0.631090    2.035123
H      -1.223326   -1.313136    0.580024
H      -2.772659   -1.316868   -1.009643
