18

N      -0.260125    1.436911   -0.115315
C      -0.128374    0.004113   -0.069444
C      -0.453929   -0.660758    1.242421
N      -0.848556    0.133893    2.366489
C      -1.437283   -0.787101    0.052001
C      -2.753593   -0.021942    0.066970
O      -2.983169    0.688445   -1.145965
C      -1.479770   -2.043688   -0.641697
N      -1.528932   -3.052206   -1.210018
H       0.640310    1.877261   -0.260641
H      -0.888001    1.713130   -0.863701
H       0.633560   -0.466172   -0.689821
H       0.076232   -1.575020    1.485507
H      -0.309141   -0.117139    3.184888
H      -0.681758    1.114513    2.149876
H      -3.575975   -0.715656    0.283295
H      -2.729399    0.722259    0.862583
H      -3.095192    0.041784   -1.851366
