21

C      -0.090143    1.475669    0.038165
C      -0.055200   -0.009838   -0.031911
C      -0.059023   -0.874375   -1.053000
C       0.011567   -2.221154   -0.323049
O      -0.951157   -2.002513    0.762872
C       0.016160   -0.981820    1.165141
C       1.162085   -1.987240    0.740264
C       1.323710   -3.152931    1.718243
C       2.529736   -1.473880    0.305117
H       0.800561    1.872738    0.542299
H      -0.140455    1.922998   -0.958524
H      -0.955850    1.827496    0.613578
H      -0.086807   -0.702121   -2.119289
H      -0.122768   -3.156010   -0.868184
H      -0.111573   -0.607307    2.182472
H       0.355766   -3.533385    2.044748
H       1.883172   -3.971144    1.250018
H       1.893522   -2.838220    2.600339
H       3.105521   -1.139833    1.176101
H       3.103865   -2.279272   -0.167328
H       2.464786   -0.645295   -0.401341
