18

O       0.164478    1.409070   -0.105810
C       0.171910    0.013506    0.109359
C      -1.243375   -0.563080    0.031570
C      -2.034074   -0.431631   -1.313915
C      -2.142004   -1.952849   -1.290578
C      -0.815978   -2.584458   -1.222885
N      -1.395077   -2.072301    0.035991
C      -2.103425   -0.035068    1.162926
O      -1.885246    0.984606    1.774401
H      -0.356348    1.780954    0.619229
H       0.806572   -0.418886   -0.668756
H       0.614698   -0.256618    1.080679
H      -2.991553    0.083635   -1.209811
H      -1.485376    0.017793   -2.144836
H      -3.049070   -2.518355   -1.474696
H      -0.774129   -3.669010   -1.231799
H       0.045518   -2.098202   -1.671236
H      -2.989759   -0.664575    1.390704
