17

C      -0.149306    1.527100   -0.119366
C       1.409598    1.745830    0.072254
C       2.130768    1.778085    1.459693
C       3.069099    0.493116    1.440128
C       2.169458   -0.441710    0.665537
N       1.379460   -1.427243    1.057802
C       0.128457   -1.142322    0.500456
C       0.192074    0.014507   -0.254715
N       1.552032    0.322455   -0.273176
H      -0.768942    1.748687    0.751139
H      -0.558629    2.031801   -0.996918
H       1.861801    2.435268   -0.646067
H       2.684675    2.704430    1.632332
H       1.402788    1.668258    2.269631
H       4.012460    0.713272    0.930827
H       3.290836    0.122210    2.440674
H      -0.719737   -1.766911    0.739286
