13

O       0.027485    0.026834   -0.014555
C      -0.023470    1.226786    0.026421
C      -1.300142    2.131497    0.029059
C      -0.695865    3.499836   -0.005554
C       0.643226    3.376757    0.007933
N       1.103787    2.075782    0.070657
O       1.240118    4.575520    0.039685
C       0.141963    5.436568    0.037164
N      -1.010642    4.849757    0.018755
H      -1.919357    1.862149   -0.832624
H      -1.884472    1.910585    0.929039
H       2.040675    1.739482   -0.079867
H       0.377776    6.486987    0.037037
