20

O       0.080307    1.417914   -0.183409
C       0.042894    0.017498   -0.045415
C       0.400885   -0.627776    1.327445
C      -0.904238   -1.476924    1.244170
C      -1.991415   -1.327797    2.326276
C      -2.896985   -0.203317    1.829418
C      -2.302054    1.131620    1.589854
N      -2.516215    0.216573    0.457242
C      -1.379574   -0.610026    0.029847
H       1.000701    1.685426   -0.269713
H       0.607101   -0.468164   -0.854497
H       1.339381   -1.187691    1.364087
H       0.399343    0.095314    2.147623
H      -0.703069   -2.523821    1.009699
H      -2.571296   -2.252191    2.415661
H      -1.568355   -1.117924    3.314891
H      -3.963309   -0.291983    2.020541
H      -2.936706    2.013665    1.562497
H      -1.294948    1.330492    1.934843
H      -1.686505   -1.140256   -0.875304
