18

C      -0.241894    1.433293    0.167657
N      -0.196632   -0.009307    0.322969
C       0.912782   -0.656790    0.749459
O       1.961375   -0.112022    1.040963
C       0.818449   -2.202034    0.846148
C       1.379919   -2.685320    2.204691
N       1.545152   -4.134231    2.193826
C      -0.523881   -2.727912    0.610183
N      -1.601696   -3.112049    0.437788
H       0.744238    1.823241    0.420334
H      -0.485792    1.708374   -0.863601
H      -0.986563    1.878221    0.836115
H      -1.025888   -0.546744    0.123409
H       1.478172   -2.604077    0.068215
H       2.356479   -2.209128    2.310780
H       0.733822   -2.297709    3.008851
H       2.094876   -4.424149    2.995545
H       0.644219   -4.596083    2.279379
