20

C      -0.032239    1.446032   -0.106385
N       0.040725    0.003131    0.077166
C       0.802665   -0.340090    1.270700
C      -1.270658   -0.594894    0.091024
C      -2.114480   -0.499318   -1.192961
O      -2.392161   -1.915233   -1.163304
C      -1.400696   -2.139773   -0.128458
C      -0.230737   -2.857380   -0.612107
C       0.713852   -3.487104   -1.007653
H       0.980057    1.854434   -0.181248
H      -0.560299    1.685017   -1.034216
H      -0.547731    1.964854    0.724916
H       0.340416    0.045958    2.199889
H       0.896399   -1.425463    1.353264
H       1.809731    0.080610    1.194124
H      -1.859657   -0.300909    0.979944
H      -3.030601    0.097990   -1.150417
H      -1.526653   -0.220942   -2.076773
H      -1.844084   -2.681718    0.715290
H       1.552240   -4.033347   -1.363649
