13

C      -0.007524    1.434770   -0.042456
N      -0.035495   -0.022733   -0.004286
N      -0.084684   -0.630360   -1.232760
C      -0.110926   -1.899705   -1.261048
O      -0.095597   -2.739310   -0.195867
C      -0.046336   -2.219400    1.087385
O      -0.032716   -2.953535    2.020687
C      -0.012540   -0.693901    1.198260
O       0.030917   -0.155068    2.279985
H       0.873445    1.771888   -0.594454
H      -0.905732    1.807416   -0.541260
H       0.030335    1.792312    0.984430
H      -0.149899   -2.424854   -2.205505
