16

O      -0.100619    0.077906    0.576451
C      -0.063041    1.216452    0.178481
C      -1.300853    2.023255   -0.183563
O      -2.030991    2.478293    0.960479
C      -1.301740    3.445696    0.196070
C      -0.041867    3.995415    0.868589
C       1.204259    3.350412    0.272057
C       2.032521    2.341466    1.019667
N       1.115358    1.932457   -0.028597
H      -1.908252    1.646299   -1.004135
H      -1.929412    4.143886   -0.354621
H       0.011458    5.081881    0.763488
H      -0.117273    3.773529    1.937875
H       1.707359    3.927740   -0.501761
H       3.090717    2.234581    0.798436
H       1.746628    2.103256    2.041195
