15

N       0.033614    1.372827    0.106023
C      -0.019604    0.019176   -0.034778
C      -1.195055   -0.653174   -0.136751
C      -1.386762   -2.086031   -0.141774
O      -2.415004   -2.644709    0.125274
O      -0.311646   -2.928818   -0.515452
C       0.763728   -2.553195   -1.263673
N       1.543927   -1.574917   -1.117104
C       1.316826   -0.686406    0.016404
H       0.902352    1.850278   -0.062861
H      -0.803142    1.916194   -0.033666
H      -2.130213   -0.104236   -0.093994
H       0.948302   -3.279655   -2.053717
H       2.123616    0.052567    0.035281
H       1.377495   -1.250407    0.958006
