16

O      -0.917374    1.682661   -0.013061
C       0.092034    1.347168    0.553537
C       1.450531    1.934537    0.265894
C       1.717124    2.808981   -1.028936
C       2.605125    3.720892   -0.276418
N       1.532127    4.320850   -1.031992
C       0.671462    4.988098   -0.015411
C       0.814616    4.095331    1.211035
C       1.843506    3.252229    0.987118
H       0.073324    0.566586    1.347993
H       2.213322    1.144195    0.301197
H       1.863987    2.384350   -2.015724
H       3.652547    3.972273   -0.391692
H       1.002879    6.031533    0.055559
H      -0.382872    4.985543   -0.313455
H      -0.061699    3.827672    1.792264
