16

N      -0.024645    1.353295    0.008516
C       0.068075   -0.008407    0.001336
O       1.126317   -0.607147   -0.011143
C      -1.221204   -0.685432    0.009944
C      -2.260302   -1.297114    0.016592
C      -3.490091   -2.075345    0.024197
C      -3.223653   -3.604694    0.013289
C      -4.461001   -4.372997    0.020952
C      -5.500043   -4.976850    0.027845
H       0.826609    1.890631    0.003428
H      -0.912467    1.823173    0.019057
H      -4.086450   -1.820388    0.907991
H      -4.103379   -1.810830   -0.845081
H      -2.627287   -3.856828   -0.870649
H      -2.610421   -3.866386    0.882793
H      -6.407927   -5.527534    0.034039
