18

C       0.076212    1.520875   -0.155288
C       0.028609    0.069794   -0.059349
C      -0.014749   -1.130913    0.032552
C      -0.062036   -2.569054    0.119338
C       0.444361   -3.384627   -1.103294
O      -0.745238   -4.202595   -1.123044
C      -1.317860   -3.503239   -0.009934
C      -0.919261   -4.122502    1.342367
N       0.212544   -3.160009    1.452554
H       0.871300    1.851621   -0.832660
H      -0.870056    1.923651   -0.533393
H       0.261881    1.975524    0.823982
H       0.545781   -2.803026   -2.026835
H       1.359614   -3.966370   -0.931744
H      -2.344256   -3.178735   -0.187494
H      -1.641177   -4.001125    2.157981
H      -0.653643   -5.180925    1.248715
H       1.137132   -3.565737    1.556872
