16

C      -0.206404    1.595672   -0.022360
C       0.090639    0.107364    0.013265
N       0.725568   -0.535495   -1.209774
C       2.057830   -0.001965   -1.329537
C       1.864247   -1.091840   -0.307761
C       2.462223   -2.440033   -0.480570
O       2.767030   -2.900149   -1.552735
C       1.196176   -0.506233    0.901018
O       1.344150   -0.648874    2.080626
H       0.683393    2.204124   -0.201147
H      -0.940012    1.818816   -0.802832
H      -0.627803    1.900363    0.940104
H      -0.831096   -0.450163    0.216836
H       2.578569   -0.333603   -2.223457
H       2.294058    1.002661   -0.989459
H       2.611171   -2.999415    0.465779
