23

C      -0.197344    1.823573    0.540830
C      -0.309669    0.307676    0.342301
C       0.633269   -0.477520    1.242810
C       0.692537   -2.039326    1.181717
C       0.255957   -2.683725   -0.132968
C       2.235622   -1.952339    1.355303
C       2.192379   -0.426828    0.998662
C       2.614349   -0.107222   -0.352178
C       2.967670    0.157453   -1.472342
H       0.809705    2.177115    0.297916
H      -0.901110    2.360115   -0.103076
H      -0.412233    2.106297    1.577821
H      -1.338985   -0.014862    0.548339
H      -0.110860    0.063988   -0.706734
H       0.462482   -0.174210    2.282586
H       0.170521   -2.528807    2.010032
H       0.782923   -2.252827   -0.989764
H       0.473704   -3.757420   -0.116292
H      -0.819433   -2.565211   -0.302833
H       2.560775   -2.110358    2.386452
H       2.838167   -2.578570    0.693989
H       2.731691    0.216671    1.700095
H       3.285881    0.392293   -2.457650
