13

O      -0.017771    0.035705    0.077559
C      -0.051487    1.230131    0.048701
C      -1.295672    2.122747   -0.013164
C      -0.736354    3.516781    0.005077
C       0.594921    3.551134    0.045544
C       1.208706    2.167276    0.047654
C       2.095986    1.904692    1.176869
N       2.792729    1.716531    2.079418
H      -1.871092    1.889521   -0.918246
H      -1.957031    1.899594    0.833534
H      -1.369814    4.395534   -0.015811
H       1.206419    4.443816    0.072277
H       1.770711    1.961688   -0.874636
