13

N      -0.087967   -1.214018   -0.105732
C      -0.057488   -0.058866   -0.055957
C      -0.015287    1.393626    0.010310
C       0.096467    2.127047    1.393502
C       1.556444    1.623190    1.515254
C       1.358276    2.150673    0.072092
N       0.662995    3.345726    0.692903
H      -0.743959    1.831576   -0.677666
H      -0.673736    2.198680    2.161228
H       2.202245    2.235511    2.142875
H       1.711171    0.552488    1.643859
H       2.088133    2.250395   -0.731097
H      -0.030199    3.722436    0.037711
