13

O      -0.100556    1.362759    0.036484
N       0.049948   -0.042889    0.035503
C      -1.063877   -0.622162    0.067008
C      -2.585095   -0.383839   -0.010017
O      -2.592683   -1.543392   -0.914263
C      -1.555049   -2.071353   -0.017380
C      -2.320717   -2.169561    1.312013
C      -3.015440   -1.025247    1.317154
H       0.814917    1.659483   -0.003721
H      -3.058198    0.514305   -0.395522
H      -0.977348   -2.904271   -0.408977
H      -2.252448   -2.959308    2.044691
H      -3.680982   -0.604849    2.055731
