21

C       0.261282    1.325644   -0.656395
C       1.308621    2.087390    0.205887
C       1.869369    1.007287    1.102646
C       2.560426    1.117808    2.442595
C       2.346902   -0.289765    3.070170
C       1.033364   -0.843747    2.446931
C       0.968128   -0.150383    1.105205
C      -0.218441    0.125832    0.210222
O       2.219187   -0.196274    0.385136
H      -0.564692    1.967962   -0.972311
H       0.745482    0.946702   -1.558530
H       2.064341    2.587588   -0.407927
H       0.832142    2.855491    0.828187
H       3.620145    1.382546    2.371964
H       2.067041    1.899003    3.034690
H       3.179234   -0.938351    2.790074
H       2.308800   -0.257689    4.162016
H       1.036501   -1.936219    2.379300
H       0.156283   -0.555420    3.040115
H      -1.078618    0.401064    0.833611
H      -0.519302   -0.731178   -0.400593
