24

C      -0.320594    1.541085    0.619576
C      -0.177469    0.041835    0.336689
C      -1.507979   -0.686798    0.050710
C      -2.053695   -0.327228   -1.347475
C      -3.533798   -0.659289   -1.564167
C      -1.350982   -2.214033    0.195391
C      -1.250976   -2.685535    1.661607
C      -1.095330   -4.134351    1.771726
N      -0.973028   -5.281581    1.839552
H       0.654991    1.995494    0.817545
H      -0.766878    2.079976   -0.221760
H      -0.952807    1.716805    1.497118
H       0.496483   -0.113206   -0.516923
H       0.321351   -0.422265    1.196068
H      -2.246239   -0.349773    0.795560
H      -1.911134    0.744891   -1.521503
H      -1.442836   -0.837634   -2.104774
H      -3.742516   -1.728313   -1.455021
H      -4.165732   -0.124216   -0.846518
H      -3.854851   -0.368103   -2.568999
H      -2.200735   -2.727337   -0.264129
H      -0.459175   -2.544268   -0.350770
H      -0.405468   -2.212588    2.172529
H      -2.152766   -2.392191    2.212080
