18

O      -0.562305    0.677778   -0.615595
C       0.131512    1.035132    0.302580
C       1.308865    1.979031    0.172209
C       1.333117    2.934140   -1.035256
C       0.181067    3.892332   -0.656299
C       0.651131    4.162640    0.768685
C       2.139442    4.092832    0.766225
C       2.575360    3.774125   -0.662262
N       1.343160    2.951892    1.296465
H      -0.035864    0.666779    1.338924
H       2.213058    1.354080    0.228432
H       1.301610    2.485694   -2.024690
H       0.171296    4.799796   -1.267876
H      -0.802506    3.420756   -0.710430
H       0.081040    4.744978    1.481601
H       2.767628    4.621446    1.472665
H       3.509196    3.204954   -0.708377
H       2.684262    4.673738   -1.276121
