19

C      -0.044850    1.569716    0.006770
C       0.059171    0.051969   -0.000549
O      -1.260487   -0.442260   -0.078751
C       1.004434   -0.605991   -1.050955
C       2.389224    0.015061   -0.739075
C       2.271141   -0.768822    0.580416
C       1.448634   -1.851613   -0.144175
O       0.530280   -2.003902    0.956482
C       0.829391   -0.587090    1.194600
H       0.901202    2.062095    0.239301
H      -0.398068    1.934698   -0.962362
H      -0.778995    1.864066    0.761858
H      -1.196094   -1.370637    0.191307
H       0.615526   -0.711067   -2.061883
H       3.184629   -0.415846   -1.354769
H       2.489523    1.101056   -0.737000
H       3.095015   -0.984646    1.258307
H       1.811854   -2.776194   -0.589284
H       0.623362   -0.263610    2.214147
