16

O       0.484514    1.007350   -0.716934
C       0.072695   -0.191530   -0.128706
C       0.283279   -0.404504    1.411139
C      -1.236827   -0.669315    1.603006
O      -1.554896   -1.792428    2.336638
C      -1.447540   -0.377090    0.061564
O      -2.051039    0.912582    0.426574
C      -2.038396    0.598826    1.779860
N      -2.594594    1.148205    2.757423
H      -0.127902    1.690909   -0.415654
H       0.512739   -1.007028   -0.708875
H       0.863471   -1.298621    1.647661
H       0.690109    0.445932    1.961224
H      -2.447281   -1.687922    2.686924
H      -2.073717   -0.923864   -0.641939
H      -3.121344    1.979701    2.485103
