20

C      -0.103779    1.502305   -0.004916
C       0.117103    0.001796    0.064438
O       0.582904   -0.432687   -1.211603
C       0.790930   -1.813301   -1.326006
C       0.916904   -2.251766   -2.794224
N       1.749226   -3.467953   -2.796352
C       2.750185   -3.269565   -1.739937
C       2.133230   -2.297945   -0.726390
O       2.614611   -1.943781    0.318863
H       0.833962    2.017480   -0.231348
H      -0.829484    1.751578   -0.784523
H      -0.479756    1.873691    0.953088
H       0.848026   -0.254447    0.839188
H      -0.825098   -0.519771    0.304614
H      -0.020593   -2.380894   -0.833576
H      -0.043555   -2.440484   -3.276252
H       1.423825   -1.454432   -3.351670
H       1.168214   -4.265021   -2.558372
H       3.057066   -4.206929   -1.269146
H       3.657805   -2.803650   -2.150227
