21

C      -0.032306    1.457885   -0.098780
C      -0.027858   -0.032474    0.005840
C      -1.040735   -0.880892    0.160123
C      -2.538602   -0.856329    0.053172
C      -2.875028   -2.297644   -0.471594
C      -1.524168   -2.933068   -0.897488
C      -0.540954   -2.297631    0.097857
O       0.824044   -2.209062   -0.280559
C       1.243353   -0.850540   -0.131590
H       0.518257    1.919898    0.730974
H       0.456241    1.793812   -1.022365
H      -1.049921    1.857407   -0.084078
H      -3.034542   -0.665090    1.011570
H      -2.878730   -0.075521   -0.634985
H      -3.322371   -2.886266    0.336129
H      -3.600730   -2.282818   -1.288246
H      -1.545597   -4.025746   -0.874678
H      -1.243917   -2.615649   -1.907748
H      -0.621637   -2.816565    1.070882
H       1.827162   -0.554593   -1.015910
H       1.910813   -0.748098    0.742349
