21

C       0.064267    1.541210    0.005309
C      -0.024414    0.047481   -0.043605
C      -1.119773   -0.723033    0.054350
C      -2.545117   -0.299482    0.238611
C      -0.785472   -2.189549   -0.065318
C      -0.912175   -2.789790   -1.487189
O       0.494852   -2.592083   -1.733622
C       0.734695   -2.208748   -0.357378
C       1.242022   -0.771847   -0.213047
H       0.736553    1.866925    0.809956
H       0.485188    1.938548   -0.927373
H      -0.905246    2.018771    0.164989
H      -2.659569    0.785249    0.297246
H      -3.173636   -0.656261   -0.587831
H      -2.966642   -0.731475    1.155783
H      -1.184247   -2.803280    0.747689
H      -1.183744   -3.854064   -1.512676
H      -1.538568   -2.241118   -2.201102
H       1.350793   -2.954797    0.156382
H       1.813474   -0.484908   -1.105099
H       1.916734   -0.650862    0.646716
