21

O      -0.178754    1.501663   -0.388366
C      -0.043634    0.117994   -0.044698
C      -1.389227   -0.606499   -0.017469
C      -1.698900   -0.790589   -1.502936
C      -2.981844   -1.401291   -1.978202
C      -2.751758    0.080805   -2.166618
C      -0.352500   -1.049090   -2.193324
C       0.742192   -0.613498   -1.165288
O       1.765486    0.190789   -1.701342
H      -0.886179    1.570306   -1.040901
H       0.488873    0.106309    0.909236
H      -1.267113   -1.580696    0.473870
H      -2.157049   -0.051863    0.530190
H      -2.947794   -2.033605   -2.859534
H      -3.710922   -1.711745   -1.236393
H      -3.331812    0.762624   -1.551416
H      -2.559544    0.439122   -3.173156
H      -0.235807   -2.105551   -2.455713
H      -0.236486   -0.474255   -3.116426
H       1.221449   -1.504232   -0.742800
H       1.462974    1.101050   -1.565669
