20

C       0.159373    1.617360    0.207744
C       0.099703    0.105783    0.176203
C       1.280177   -0.790105   -0.225485
C       2.543555   -0.228018    0.420103
O       3.610462    0.185093    0.050095
N       1.986044   -0.322984    1.692902
C       2.254025    0.506002    2.847051
C       0.703380   -0.836528    1.185592
C      -0.009666   -1.940827    1.905607
H       1.123381    1.982732    0.569261
H       0.012973    2.024795   -0.797928
H      -0.626482    2.027060    0.851914
H      -0.836306   -0.281529   -0.228172
H       1.223313   -1.526170   -1.015366
H       3.261432    0.914319    2.731496
H       1.544376    1.339046    2.940693
H       2.221803   -0.081843    3.770422
H      -0.443915   -1.586866    2.848009
H      -0.827765   -2.332866    1.294553
H       0.677117   -2.761281    2.137028
