16

C      -0.051307    1.458373    0.025798
C      -0.004762    0.005499    0.020658
C       0.032027   -1.199071    0.008518
C       0.102080   -2.620599   -0.023294
C       0.627870   -3.617315    1.073327
C       0.034084   -4.527407   -0.042456
N      -1.121435   -3.545328   -0.221058
C       0.782151   -3.609921   -1.027141
O       1.501549   -3.626912   -1.966537
H       0.657523    1.878366   -0.696070
H      -1.050809    1.818606   -0.241046
H       0.196689    1.861942    1.013536
H       1.700480   -3.649178    1.287071
H       0.026200   -3.598317    1.986281
H      -0.113096   -5.604030   -0.047202
H      -1.644309   -3.527956    0.661995
