21

C       0.016647    1.559959   -0.153750
C      -0.031695    0.062866    0.065271
C       1.190150   -0.799310   -0.115690
C       0.595259   -0.618252    1.264867
C       1.335414    0.159844    2.306506
O       0.460742    0.794569    3.280877
C       1.147874    0.177223    4.384011
C       2.061321   -0.624994    3.431598
O       1.824641   -2.011660    3.358111
H       0.991982    1.981721    0.105381
H      -0.171707    1.800937   -1.205846
H      -0.737049    2.074280    0.451592
H      -0.967889   -0.390338   -0.251046
H       1.097252   -1.768911   -0.591747
H       2.128588   -0.293195   -0.324408
H       0.051677   -1.465317    1.667660
H       1.988576    0.911025    1.843341
H       1.655935    0.912956    5.021906
H       0.480891   -0.441682    4.997394
H       3.133176   -0.408101    3.520731
H       2.228783   -2.428482    4.125430
