21

C       0.058773    1.623453   -0.196748
C       0.006082    0.099236   -0.066083
C       0.726732   -0.413468    1.181749
N       0.710976   -1.875843    1.237102
C      -0.512489   -2.502050    1.827891
C       0.304181   -3.733601    2.331227
N      -0.172695   -3.679856    3.749882
C      -0.115312   -2.241020    3.335482
C       1.200307   -2.479385    2.510691
H       1.093106    1.980143   -0.256385
H      -0.461761    1.962960   -1.097286
H      -0.410274    2.114990    0.663006
H      -1.040546   -0.231331   -0.040906
H       0.456625   -0.375265   -0.945076
H       1.778222   -0.098221    1.149593
H       0.285375    0.053818    2.081865
H      -1.497641   -2.479083    1.356807
H       0.540311   -4.652152    1.795188
H      -1.146532   -3.990425    3.804765
H      -0.385503   -1.428160    4.009732
H       2.234892   -2.428759    2.851108
