19

C      -0.477586    1.155163   -0.217839
O       0.423570    0.101694    0.086965
C       0.903858   -0.551332   -1.031548
C       1.539048   -1.879557   -0.802221
N       1.542811   -2.400429    0.529648
C       0.174347   -1.806602   -1.550994
C      -1.074163   -2.299271   -0.843561
C       0.225318   -2.010358   -2.971014
N       0.283841   -2.164973   -4.117697
H      -0.001840    1.909627   -0.860223
H      -1.378419    0.782040   -0.721230
H      -0.758163    1.616842    0.730683
H       1.340071    0.101125   -1.788909
H       2.390107   -2.105481   -1.442169
H       2.141476   -3.211326    0.609593
H       1.840804   -1.698686    1.196747
H      -1.000821   -2.084228    0.221781
H      -1.968915   -1.819389   -1.250508
H      -1.182408   -3.380610   -0.967286
