24

C      -0.049926    1.546813    0.051795
C      -0.010305    0.004461    0.039684
C       0.697448   -0.478505    1.320507
C      -1.463484   -0.513821    0.055741
C       0.746417   -0.517262   -1.257151
C       2.201851    0.004587   -1.359124
C       0.779820   -2.063222   -1.357072
C       0.024606   -0.022301   -2.445185
N      -0.530803    0.358398   -3.385469
H       0.946091    1.985499    0.157069
H      -0.504886    1.945435   -0.859639
H      -0.647101    1.892697    0.901252
H       0.153969   -0.105680    2.194760
H       0.721815   -1.569108    1.397680
H       1.722880   -0.106037    1.396032
H      -2.000139   -0.237245   -0.856485
H      -1.513946   -1.600472    0.166277
H      -2.000379   -0.077179    0.903631
H       2.801313   -0.372444   -0.527026
H       2.658163   -0.349078   -2.287471
H       2.249895    1.094476   -1.359856
H      -0.220776   -2.497911   -1.357799
H       1.273815   -2.363979   -2.284783
H       1.345912   -2.487140   -0.524165
