16

O       0.109761    1.352895   -0.308327
C       0.075336   -0.017310    0.055292
C      -1.325866   -0.500384    0.252563
C      -2.331734   -0.162168    1.381012
C      -2.919648   -1.554467    1.129867
N      -3.757695   -2.322948    1.683713
O      -4.407575   -1.681278    2.748702
C      -1.955060   -1.825552    0.017009
O      -2.114392   -0.738570   -0.922408
H      -0.373011    1.439095   -1.137991
H       0.569109   -0.654230   -0.693357
H       0.635220   -0.097664    0.992526
H      -1.887251   -0.081871    2.377294
H      -2.977360    0.697226    1.193169
H      -4.997625   -2.370345    3.073391
H      -1.561601   -2.761711   -0.358241
