11

O      -0.061483    1.312344    0.009691
C       1.257753    1.745461   -0.000591
C       2.114812    0.701176   -0.014404
N       1.300010   -0.423479   -0.012674
N       1.363403   -1.781610   -0.020568
C       0.062523   -2.081474   -0.009672
N      -0.827770   -1.037567    0.004400
C       0.009714   -0.028988    0.001798
H       1.404218    2.810412    0.003725
H       3.189486    0.667058   -0.024876
H      -0.263990   -3.110622   -0.012068
