14

O       0.005053    1.471843   -0.046122
C       0.055946    0.070029   -0.002869
C       0.007979   -0.632571    1.371896
C      -1.522184   -0.277657    1.560095
C      -1.317878   -0.603974    0.026342
C      -0.731370   -1.880317    0.747170
C      -1.810778   -1.752485    1.819823
O      -2.502236   -2.445274    2.501189
H       0.903822    1.814708   -0.027585
H       0.780283   -0.334187   -0.723981
H       0.746725   -0.677673    2.172249
H      -1.929854    0.636930    1.979984
H      -2.104543   -0.609589   -0.727142
H      -0.266826   -2.740121    0.269307
