11

C      -0.003898   -1.214157   -0.004415
C      -0.003924   -0.016306    0.002015
C      -0.003471    1.457862    0.009918
C       1.372355    1.987233   -0.000376
C       2.490456    2.416966   -0.008741
C      -0.733716    1.958028   -1.187242
N      -1.291006    2.339901   -2.122209
C      -0.710673    1.945084    1.226099
N      -1.249968    2.316853    2.175579
H      -0.003701   -2.277443   -0.010126
H       3.483033    2.798204   -0.016157
