20

C      -0.374001    1.617941   -0.311780
C       0.041827    0.188152   -0.016006
C       0.790094   -0.620296   -1.151507
C       1.931423   -0.718095   -0.153391
C       3.100378   -1.212285    0.382805
C       4.140942   -2.076948   -0.262847
C       3.111221   -0.701511    1.727001
C       1.965328    0.042290    1.962893
N       1.280513    0.032311    0.779717
H       0.455275    2.180758   -0.750573
H      -1.213679    1.628226   -1.014561
H      -0.693171    2.131528    0.600927
H      -0.790940   -0.377007    0.417476
H       0.305617   -1.560596   -1.429506
H       0.981942   -0.039789   -2.059512
H       5.098961   -1.554632   -0.376615
H       4.339490   -2.981002    0.324606
H       3.824315   -2.396046   -1.260367
H       3.905311   -0.855211    2.444682
H       1.635549    0.579867    2.836984
