18

N      -0.029796    1.204298   -0.199868
C       0.027039   -0.026880    0.027406
O       1.080105   -0.822847    0.424031
C       0.226889   -2.007914    0.459878
C      -0.993496   -1.158249   -0.002356
C      -2.222742   -1.009498    0.928877
C      -3.396871   -1.715284    0.203732
C      -2.899404   -1.833033   -1.214839
C      -1.609271   -1.524294   -1.327824
H       0.875388    1.655555   -0.057335
H       0.581495   -2.766747   -0.242211
H       0.169106   -2.418592    1.471688
H      -2.036009   -1.404101    1.930943
H      -2.437497    0.057761    1.031417
H      -3.610376   -2.707506    0.624353
H      -4.329699   -1.145590    0.278331
H      -3.532415   -2.159239   -2.032826
H      -1.025538   -1.553099   -2.240879
