18

C      -0.117123    1.542024    0.016941
C       0.052722    0.027511    0.031672
C       1.061654   -0.588519   -0.963309
C       2.406831   -0.042705   -0.465283
N       2.189246   -0.001309    1.004984
C       0.832752   -0.574981    1.215738
C       0.898122   -2.037532    0.770871
O       0.910194   -3.057050    1.395864
O       1.037862   -1.992301   -0.598054
H       0.809450    2.055504    0.281696
H      -0.439706    1.888497   -0.970777
H      -0.883334    1.844196    0.737367
H      -0.915167   -0.469193   -0.086671
H       0.857240   -0.502289   -2.029176
H       3.222143   -0.709813   -0.759951
H       2.615277    0.957952   -0.861238
H       2.890054   -0.535320    1.505674
H       0.464418   -0.424311    2.228242
