23

C      -0.322344    1.581990   -0.028614
C       0.003346    0.084307   -0.074510
C       0.723082   -0.425624   -1.345782
C       2.180610   -0.806354   -0.934335
C       2.748189   -1.913175   -1.828235
C       3.099802    0.428223   -0.994362
C       2.010684   -1.251575    0.534336
C       0.920971   -0.338628    1.087481
O       0.795222    0.015844    2.232051
H       0.562110    2.190776   -0.242216
H      -1.089690    1.836976   -0.765571
H      -0.686395    1.853729    0.965659
H      -0.936356   -0.464073    0.072838
H       0.216051   -1.314489   -1.736090
H       0.719155    0.317260   -2.149715
H       2.799459   -1.585486   -2.872993
H       3.761357   -2.194221   -1.520122
H       2.124315   -2.812832   -1.790857
H       2.744829    1.237664   -0.347468
H       4.114754    0.173723   -0.669856
H       3.161428    0.820669   -2.015018
H       1.630289   -2.282425    0.577839
H       2.918834   -1.209360    1.140353
