18

C       0.108348    1.520288    0.121321
C       0.036656   -0.004396    0.012162
C       0.583995   -0.523110   -1.324327
O       1.958885   -0.149849   -1.482462
C       2.771841   -1.280477   -1.754540
C       1.822867   -2.459551   -1.682132
C       0.584140   -2.019136   -1.451072
C       2.242387   -3.802997   -1.855280
N       2.620394   -4.888123   -2.001730
H       1.139993    1.864445    0.012900
H      -0.491189    2.001020   -0.659678
H      -0.268236    1.860890    1.089995
H       0.606197   -0.472581    0.823479
H      -1.002189   -0.344195    0.111486
H      -0.003205   -0.068517   -2.141851
H       3.234480   -1.195255   -2.749238
H       3.582550   -1.353995   -1.016512
H      -0.305263   -2.628482   -1.360663
