23

C      -0.038166    1.549366    0.128693
C       0.003638    0.027017   -0.030019
C       0.714406   -0.478737   -1.304952
C       0.046654    0.040648   -2.580671
O       2.058714    0.026343   -1.349259
C       0.752882   -2.025488   -1.277815
C       1.499446   -2.643955   -2.434428
C       1.242999   -4.019250   -2.877768
O       0.749008   -2.909313   -3.627498
H       0.961989    1.976611    0.014995
H      -0.688364    2.018682   -0.615232
H      -0.418917    1.823633    1.117140
H       0.521127   -0.411302    0.836265
H      -1.013822   -0.382835   -0.007011
H       0.089714    1.131389   -2.614544
H       0.550551   -0.348248   -3.467166
H      -1.000709   -0.271967   -2.622035
H       2.494700   -0.226429   -0.527550
H       1.237354   -2.339461   -0.341097
H      -0.266822   -2.426601   -1.257657
H       2.485135   -2.219902   -2.622773
H       2.035073   -4.594225   -3.355966
H       0.484306   -4.613903   -2.369226
