19

C       0.383893    1.577542   -0.407389
C       0.250664    0.148633   -0.164864
C       0.137109   -1.034254    0.033182
C      -0.010138   -2.449966    0.283542
C      -0.297582   -2.956203    1.731086
C      -1.226364   -4.043110    1.138657
C      -1.317524   -3.217214   -0.189620
C      -2.508499   -2.399737   -0.295072
C      -3.505626   -1.731911   -0.372502
H       1.300577    1.806619   -0.962333
H      -0.460917    1.959640   -0.991236
H       0.416555    2.140212    0.532384
H       0.848049   -2.995482   -0.124903
H       0.562928   -3.278144    2.320674
H      -0.859082   -2.208417    2.294857
H      -0.706262   -4.990177    0.972934
H      -2.168967   -4.237290    1.650702
H      -1.181415   -3.792358   -1.109851
H      -4.382303   -1.137895   -0.446854
