20

O       0.113995    1.433121   -0.009011
C       0.037215    0.028755    0.065046
C      -1.414594   -0.501655   -0.026355
C      -1.998265   -0.070755   -1.300858
N      -2.414096    0.284716   -2.319911
C      -1.492156   -2.025222    0.133345
C      -1.147909   -2.637523    1.521485
C      -2.302849   -3.653317    1.309307
C      -2.884315   -2.709064    0.222041
H      -0.174162    1.703358   -0.888652
H       0.647794   -0.460851   -0.708693
H       0.444134   -0.252834    1.040464
H      -1.992556   -0.023913    0.775263
H      -0.890640   -2.498721   -0.650282
H      -0.138879   -3.028088    1.671156
H      -1.373665   -1.936034    2.331899
H      -1.942114   -4.592118    0.880419
H      -2.935001   -3.885002    2.168680
H      -3.634826   -2.029210    0.637979
H      -3.287299   -3.154314   -0.689483
