17

O       0.098734   -0.022985    0.286316
C       0.046520    1.146346    0.008112
C       1.234777    2.081909   -0.036590
C       1.334547    2.816044   -1.383395
C       2.475711    3.831269   -1.409398
C       2.591722    4.566953   -2.723400
O       1.863555    4.405341   -3.675187
C       3.723432    5.598505   -2.848013
O       4.500152    5.841220   -1.962860
H      -0.925479    1.631929   -0.246757
H       1.100196    2.819070    0.769302
H       2.139186    1.506537    0.182658
H       1.476679    2.091508   -2.192494
H       0.390502    3.327908   -1.602891
H       2.369878    4.583899   -0.615540
H       3.446324    3.359546   -1.204215
H       3.745181    6.094667   -3.841141
