15

N       0.056916    1.329957    0.082827
C      -0.019682   -0.040779    0.010554
N      -1.109614   -0.725396    0.003426
C      -0.754250   -2.108342   -0.005274
C       0.004070   -2.644523   -1.190538
C       0.804738   -2.160279    0.001266
N       1.183422   -0.758989   -0.040174
C       1.608458   -3.042534    0.784762
N       2.261296   -3.752880    1.425054
H       0.807883    1.749026   -0.445615
H      -0.834432    1.781219   -0.064044
H      -1.363291   -2.785588    0.582900
H      -0.013233   -3.717632   -1.344411
H       0.056083   -2.040683   -2.090571
H       1.913870   -0.472343    0.599112
