23

C      -0.233728    1.566550    0.207527
C       0.039868    0.079767    0.030922
C       1.269623   -0.447183   -0.781776
C       2.177129   -0.062186    0.423811
C       0.915288   -0.729565    1.045223
C       1.049858   -1.811124   -0.070427
C      -0.067444   -2.838471   -0.389545
C       0.900891   -3.973193    0.044758
C       2.082387   -2.965205    0.005882
H       0.654051    2.148588    0.466570
H      -0.647551    1.989662   -0.714874
H      -0.975163    1.726629    0.998619
H      -0.895110   -0.427167   -0.229671
H       1.476555   -0.290975   -1.843650
H       3.116729   -0.610180    0.520675
H       2.333838    0.999135    0.618667
H       0.710453   -0.901571    2.104958
H      -1.005874   -2.753168    0.164841
H      -0.304549   -2.877295   -1.457928
H       0.693472   -4.328032    1.057721
H       0.971038   -4.840800   -0.614979
H       2.676326   -3.053198   -0.909885
H       2.766699   -2.974465    0.858457
