21

C      -0.033318    1.567758   -0.005415
C       0.030868    0.034995   -0.007353
C       0.550862   -0.492290   -1.363049
C       0.992261   -1.964989   -1.333256
C       1.932677   -2.194562   -0.155826
O       2.878759   -1.083205   -0.009323
C       2.303763   -0.758499    1.256063
C       1.336264   -1.912850    1.230804
C       0.817354   -0.493578    1.187493
H       0.969674    1.998107   -0.100195
H      -0.637755    1.937616   -0.840793
H      -0.475553    1.949432    0.921321
H      -0.994416   -0.343792    0.123817
H      -0.223204   -0.345495   -2.124550
H       1.413565    0.108377   -1.665275
H       0.135063   -2.643404   -1.228386
H       1.487897   -2.219873   -2.276845
H       2.480132   -3.139767   -0.219773
H       2.967208   -0.374746    2.023137
H       1.072740   -2.652152    1.975356
H       0.429832   -0.162804    2.150658
