20

C      -0.113109    1.586642   -0.027639
C       0.058791    0.076936   -0.022877
O      -1.254088   -0.485749   -0.050836
C       0.892950   -0.491481   -1.185530
N       1.234662   -1.878614   -0.775391
C       2.506116   -1.968655   -0.045958
C       1.244550   -1.867380    0.721367
C       0.802780   -0.499193    1.224585
O       1.938880    0.262329    1.614743
H       0.854829    2.089657    0.037823
H      -0.609231    1.907681   -0.947639
H      -0.741156    1.900806    0.812840
H      -1.166807   -1.419577   -0.275009
H       0.307028   -0.516261   -2.108664
H       1.789982    0.113438   -1.360933
H       3.011194   -2.928062   -0.118697
H       3.160324   -1.101775   -0.049696
H       0.832520   -2.748759    1.202940
H       0.089540   -0.594653    2.052561
H       1.623309    1.090328    1.990398
