22

C       1.364603    0.070289   -0.363880
C       0.603287   -1.064887   -0.953994
N      -0.043123   -0.132068   -0.036479
C      -0.331711   -0.635616    1.304468
C      -0.391720    0.523793    2.305810
C      -0.852523    0.021105    3.676705
O      -2.101325   -0.644124    3.603843
C      -2.053954   -1.770294    2.745447
C      -1.670411   -1.382806    1.314666
H       2.106035   -0.174689    0.395776
H       1.593842    0.951965   -0.955325
H       0.264840   -1.029663   -1.985461
H       0.840038   -2.062381   -0.585531
H       0.460136   -1.338525    1.635036
H       0.587944    1.007704    2.395273
H      -1.098233    1.274111    1.933630
H      -0.090521   -0.654670    4.104965
H      -0.988607    0.852733    4.374043
H      -1.337109   -2.513399    3.138707
H      -3.050090   -2.221046    2.776140
H      -2.441654   -0.729005    0.892311
H      -1.616750   -2.279618    0.686363
