13

N       0.978993   -0.082320   -0.408515
C      -0.100498    0.466311   -0.028256
N      -1.302974   -0.204599   -0.189685
C      -2.528658    0.278477    0.177946
N      -2.713265    1.420103    0.719645
C      -3.634824   -0.707378   -0.137784
O      -3.447937   -1.781564   -0.649740
C      -4.990300   -0.260451    0.229308
N      -6.064018    0.066175    0.507596
H       1.771656    0.529599   -0.224660
H      -0.225944    1.446933    0.434156
H      -1.271198   -1.123647   -0.612286
H      -3.698907    1.589679    0.915379
