17

C      -0.166635    1.551008   -0.019463
C       0.021711    0.040207    0.014751
C       1.221325   -0.632113   -0.763062
C       2.166724   -0.151769    0.394564
C       0.892541   -0.629335    1.159792
C       0.646199   -0.640943    2.620816
O       1.483749   -0.374726    3.448805
C       0.940572   -1.825349    0.146552
O       0.818345   -3.006105    0.127490
H       0.751748    2.114951    0.152768
H      -0.564867    1.850566   -0.994354
H      -0.892871    1.857473    0.739941
H      -0.940524   -0.453379   -0.152969
H       1.411243   -0.612745   -1.834042
H       3.082648   -0.719820    0.558653
H       2.357299    0.918593    0.432343
H      -0.386518   -0.933680    2.916192
