21

C      -0.048912    1.526706   -0.114844
C      -0.152515    0.012982   -0.160311
O       0.890260   -0.478855   -1.002401
C       0.884202   -1.841004   -1.168724
C      -0.125565   -2.583916   -2.028628
C       1.351584   -2.669078   -2.337255
C       2.016040   -2.382444   -3.641745
O       1.956399   -3.645769   -1.470400
C       1.636616   -2.846835   -0.298848
H       0.921938    1.834489    0.283583
H      -0.156498    1.949012   -1.118018
H      -0.834098    1.942261    0.523728
H      -0.053048   -0.413796    0.849262
H      -1.127773   -0.305330   -0.556730
H      -0.659296   -3.456657   -1.660644
H      -0.687394   -1.934025   -2.693310
H       1.527995   -1.539206   -4.138146
H       3.072250   -2.137925   -3.493887
H       1.954911   -3.251575   -4.306197
H       2.545771   -2.425231    0.145474
H       1.076229   -3.414833    0.453028
