16

C      -0.316702    1.527851   -0.033996
C       0.003007    0.033832    0.016202
N       0.688691   -0.436342   -1.205770
C       1.688231   -1.129011   -0.849390
N       1.913773   -1.344559    0.558932
C       2.346457   -0.085933    1.245643
C       2.933663    1.003848    0.509051
N       3.455518    1.879740   -0.037380
C       0.898240   -0.462062    1.159952
H       0.590184    2.128558   -0.125400
H      -0.953997    1.737953   -0.896280
H      -0.849590    1.832844    0.871841
H      -0.945059   -0.516788    0.084461
H       2.377066   -1.600707   -1.542440
H       2.853143   -0.276917    2.187644
H       0.436930   -0.815209    2.076358
