18

O       0.067614    1.426202   -0.025870
C       0.012733    0.013067    0.000138
C      -1.412533   -0.463082    0.003640
C      -2.457055    0.362137    0.036600
C      -3.875975   -0.132230    0.010094
O      -3.995445   -1.513147   -0.279938
C      -3.046157   -2.295867    0.419633
C      -1.621294   -1.959107   -0.025595
H       0.991469    1.689776   -0.009152
H       0.531574   -0.425073   -0.871962
H       0.524621   -0.390381    0.892759
H      -2.306372    1.435263    0.084702
H      -4.369833    0.102038    0.972388
H      -4.447322    0.388732   -0.767945
H      -3.141555   -2.136885    1.506956
H      -3.294086   -3.340070    0.208716
H      -1.441639   -2.351366   -1.036088
H      -0.900902   -2.462854    0.633902
