16

C       0.059998    1.541741    0.108323
C      -0.008546    0.038209    0.016308
C      -1.164737   -0.670595   -0.031872
C      -2.547815   -0.096639   -0.002993
C      -1.099933   -2.131716   -0.120956
O      -2.052154   -2.866887   -0.168955
O       0.160195   -2.712576   -0.152539
N       1.336955   -1.991693   -0.104423
C       1.222334   -0.711040   -0.025827
H       1.095262    1.885443    0.166684
H      -0.400600    2.015185   -0.764930
H      -0.466514    1.911611    0.993711
H      -3.100918   -0.402363   -0.897377
H      -3.106831   -0.502508    0.846821
H      -2.544487    0.991956    0.059184
H       2.176274   -0.191865    0.009467
