12

O      -0.001878   -0.043510   -0.000621
C       0.002393    1.161372    0.008743
C       1.215172    1.994038    0.002420
C       1.370887    3.347785    0.011710
C       2.784426    3.525195   -0.002442
N       3.407285    2.353949   -0.017996
O       2.424062    1.397845   -0.015169
C       3.508765    4.742849   -0.000496
C       4.090858    5.794402    0.001686
H      -0.931450    1.761439    0.023720
H       0.609010    4.108886    0.026060
H       4.617703    6.717002    0.003426
