18

C       0.050327    1.572096    0.010057
C       0.004782    0.042098    0.002305
C      -1.423045   -0.511705    0.012876
C      -1.456375   -2.053315    0.004891
C      -2.799733   -2.611080    0.014640
C      -3.918821   -3.067353    0.022966
C      -5.264094   -3.576906    0.033017
O      -5.556950   -4.751239    0.029503
H       1.081227    1.938596    0.002248
H      -0.457919    1.988172   -0.866707
H      -0.441171    1.978721    0.900695
H       0.534014   -0.337091   -0.882016
H       0.550644   -0.346477    0.872327
H      -1.959005   -0.148377    0.897729
H      -1.975665   -0.138954   -0.857700
H      -0.923354   -2.432993   -0.877528
H      -0.906684   -2.442468    0.872850
H      -6.045770   -2.789486    0.044710
