18

C       0.646751    1.398665    0.251080
O       0.927332    0.021469    0.338952
C      -0.170014   -0.733907    0.804225
C       0.255457   -2.161038    0.850001
C       1.017605   -3.037785   -0.107487
C       0.132388   -4.214608    0.372537
C       0.599084   -4.030421    1.770719
C       1.501731   -2.846684    1.343027
N      -0.644234   -3.314292    1.302273
H       0.379140    1.823757    1.231145
H       1.550296    1.892596   -0.114141
H      -0.178995    1.602877   -0.448417
H      -0.484688   -0.399457    1.808486
H      -1.042310   -0.619208    0.136871
H       1.525173   -2.802010   -1.031022
H      -0.329772   -5.056723   -0.128840
H       0.590275   -4.693641    2.627569
H       2.436853   -2.441995    1.700651
