17

C      -0.339841    1.549145    0.610181
N       0.135264    0.189117    0.761372
C      -0.233469   -0.656214   -0.103534
N       0.185272   -1.978296   -0.018784
C      -0.175472   -2.945749   -0.920497
O      -0.892470   -2.745958   -1.877569
C       0.393575   -4.353058   -0.652358
C       1.244293   -4.503564    0.517538
C       1.943782   -4.597575    1.491091
H      -0.988261    1.700375   -0.266915
H      -0.895245    1.844329    1.507878
H       0.516403    2.228830    0.530583
H      -0.881316   -0.465878   -0.964227
H       0.788361   -2.224514    0.755309
H      -0.471235   -5.023787   -0.592258
H       0.931180   -4.641639   -1.562904
H       2.563872   -4.696613    2.347997
