17

C       0.030869    1.490966    0.086037
C       0.186205   -0.025237    0.052829
N       0.468605   -0.485881   -1.311782
C       0.619506   -1.922166   -1.410879
C       1.134317   -2.457487   -2.759330
O       2.353009   -2.952302   -2.114190
C       1.972557   -2.450035   -0.897409
O       2.580136   -2.472346    0.123955
H       0.934379    1.979707   -0.288770
H      -0.813010    1.816945   -0.533631
H      -0.155608    1.836487    1.106815
H       1.024974   -0.334282    0.684354
H      -0.717051   -0.505688    0.472832
H      -0.285436   -0.189546   -1.925951
H      -0.221984   -2.506006   -0.998145
H       0.575662   -3.278371   -3.212122
H       1.373653   -1.684249   -3.491610
