23

C       0.023328    1.546875   -0.012602
C       0.000233    0.012508   -0.003937
C      -1.458169   -0.482236    0.015744
C       0.761890   -0.593408   -1.213804
C       1.315444   -1.961701   -0.745080
O       2.534124   -2.332479   -1.379642
C       1.523290   -1.800558    0.747456
C       2.249819   -0.558082    1.199515
C       0.743367   -0.586190    1.198147
H       1.048909    1.928003    0.016604
H      -0.459549    1.945057   -0.912357
H      -0.509311    1.952376    0.855155
H      -2.008364   -0.115289   -0.857787
H      -1.511458   -1.575631    0.014727
H      -1.979511   -0.125709    0.911164
H       0.124540   -0.679485   -2.099932
H       1.613213    0.036754   -1.491230
H       0.561600   -2.748056   -0.908726
H       2.347573   -2.483421   -2.311718
H       1.593617   -2.695695    1.354627
H       2.741531   -0.605147    2.164868
H       2.782653    0.036617    0.465839
H       0.232512   -0.577782    2.156339
