23

C       0.065494    1.426040   -0.204622
C      -0.000023   -0.095461   -0.016622
C       0.793911   -0.538438    1.220166
C      -1.448120   -0.576821    0.059851
C      -2.360541   -0.451475   -1.207592
C      -2.721268   -1.960018   -1.106170
C      -1.753628   -2.887381   -1.855312
O      -0.804551   -2.859474   -0.761715
C      -1.715173   -2.104585    0.070075
H       1.101214    1.763607   -0.316719
H      -0.488239    1.749519   -1.092248
H      -0.360911    1.947334    0.661217
H       0.454489   -0.574844   -0.892904
H       0.801327   -1.628279    1.316421
H       1.834283   -0.201909    1.159727
H       0.363549   -0.117829    2.137496
H      -1.941582   -0.119691    0.927891
H      -3.207542    0.227556   -1.089289
H      -1.834404   -0.182722   -2.129423
H      -3.773379   -2.236886   -1.062185
H      -2.130104   -3.905167   -2.023332
H      -1.326020   -2.504453   -2.790881
H      -1.906908   -2.605053    1.023599
