15

O      -0.147289    0.876300    1.187333
C       0.080643    1.315320    0.094829
C       1.429801    1.907958   -0.316249
N       1.316408    2.884568   -1.379138
C       0.774620    4.202179   -1.079454
C       1.616851    4.947973   -0.133957
N       2.278226    5.513029    0.625835
C       1.757530    2.636362   -2.657028
O       1.690349    3.418495   -3.575558
H      -0.676604    1.303713   -0.723710
H       1.925855    2.325990    0.566509
H       2.050798    1.077121   -0.675335
H       0.717171    4.740827   -2.029891
H      -0.237362    4.127673   -0.663484
H       2.181373    1.619124   -2.751026
