17

O       0.094983    1.379007    0.205179
C       0.040890   -0.011346    0.042985
C      -1.400405   -0.524273   -0.107511
N      -2.183210    0.420018   -0.927992
C      -1.670638   -0.823564   -1.537780
C      -0.404403   -0.604271   -2.356864
C       0.721789   -0.521980   -1.280256
C       1.883132    0.258466   -1.688014
N       2.806168    0.860536   -2.035635
H      -0.657578    1.727831   -0.298221
H       0.541181   -0.455705    0.907664
H      -1.885402   -1.048058    0.708318
H      -3.173144    0.336590   -0.714447
H      -2.384837   -1.583600   -1.836189
H      -0.217726   -1.422205   -3.056104
H      -0.473116    0.321623   -2.933088
H       1.062422   -1.545690   -1.082124
