17

C      -0.043686    1.318551    0.243085
O      -0.030516   -0.089697    0.193984
C      -1.288463   -0.627137   -0.145053
C      -1.199203   -2.117634   -0.093242
N      -1.360595   -2.853190   -1.160220
O      -1.214940   -4.158232   -0.676552
C      -0.977463   -4.054432    0.640736
C      -0.775908   -5.306044    1.415490
N      -0.959209   -2.826744    1.063356
H       0.963782    1.641101    0.514586
H      -0.309676    1.759601   -0.730477
H      -0.754339    1.693266    0.996583
H      -2.060102   -0.288983    0.566424
H      -1.600306   -0.322775   -1.155293
H      -1.647892   -5.960601    1.325414
H       0.091717   -5.856011    1.038611
H      -0.616463   -5.056064    2.464008
