18

C      -0.207652    1.499476    0.047234
C       0.027204    0.003315    0.006900
O      -1.196885   -0.727577    0.330265
C      -0.497262   -1.540940    1.294034
C       0.805905   -0.728313    1.141536
C       2.010907   -1.436023    0.498649
C       1.739425   -1.288906   -0.983513
C       0.686864   -0.515292   -1.248033
H       0.727736    2.044193   -0.118133
H      -0.916313    1.792943   -0.734869
H      -0.626470    1.797659    1.012604
H      -0.981587   -1.506800    2.276814
H      -0.418385   -2.588519    0.972327
H       1.060038   -0.123981    2.013199
H       2.964020   -0.967909    0.778522
H       2.088366   -2.487973    0.803122
H       2.358412   -1.772159   -1.732690
H       0.313543   -0.272164   -2.237019
