18

C       0.100743    1.305260    0.527496
C       0.075343   -0.081891   -0.077922
O       1.055440   -0.617262   -0.538846
C      -1.283981   -0.786840   -0.044960
C      -1.327404   -2.240136   -0.601969
C      -1.710959   -2.784024    0.811810
C      -1.645364   -1.361336    1.322313
N      -1.793006   -0.764006    2.428620
O      -2.109562   -1.668288    3.456303
H       1.124137    1.680409    0.563829
H      -0.516362    1.982237   -0.075195
H      -0.338524    1.279914    1.530229
H      -2.048733   -0.106521   -0.435902
H      -2.078005   -2.406090   -1.375359
H      -0.351154   -2.564426   -0.962701
H      -2.703253   -3.236674    0.895750
H      -0.989236   -3.462845    1.275269
H      -2.193211   -1.088367    4.220968
