17

C       0.124834    1.542081   -0.035519
C       0.031218    0.049470   -0.007954
C       0.016384   -0.828275   -1.043901
O      -0.080677   -2.093849   -0.608157
N      -0.129992   -2.079062    0.778578
C      -0.071392   -0.814988    1.130842
C      -0.119981   -0.434479    2.559093
C      -1.251510   -0.918519    3.408982
N       0.097276   -1.455336    3.594459
H       1.007572    1.900434    0.505781
H       0.194313    1.910363   -1.062210
H      -0.750794    2.009940    0.427546
H       0.068104   -0.702927   -2.114928
H       0.318420    0.533997    2.785150
H      -1.617484   -0.293983    4.219455
H      -1.998435   -1.537324    2.920178
H       0.170645   -2.362375    3.136891
