23

C       2.596331   -0.816979    0.228005
C       1.460532   -1.735020    0.623120
C       1.677576   -2.864592    1.601084
C       0.811898   -1.683910    1.991375
C       1.259682   -0.735655    3.060778
C       0.545803    0.585671    3.326955
C      -0.636448    1.048174    2.503009
C       0.418087   -0.546464    4.309843
O      -0.836115   -1.163915    4.393315
H       3.284207   -0.639278    1.059703
H       3.179544   -1.249323   -0.592751
H       2.224126    0.158194   -0.105854
H       0.775135   -1.954079   -0.192283
H       1.207260   -3.824495    1.415461
H       2.657397   -2.935623    2.065115
H      -0.255714   -1.876263    1.998989
H       2.333335   -0.720906    3.227734
H       1.198711    1.392792    3.650096
H      -1.347744    0.239852    2.327834
H      -1.174110    1.849484    3.021115
H      -0.311103    1.437661    1.532335
H       0.934540   -0.455378    5.265672
H      -0.692171   -2.108366    4.515470
