20

C      -0.484755    1.398331    0.179602
C       0.238750    0.066906   -0.054498
C       0.986580   -0.434655    1.147853
C       1.151491   -1.887879    1.458425
C       2.219809   -2.066201    2.522343
C       1.632095   -0.764570    3.089527
C       1.940195    0.328956    2.041929
O       3.250032    0.506159    1.552990
N       0.283257   -1.036214    2.350826
H       0.221435    2.205452    0.400137
H      -1.053716    1.692383   -0.707322
H      -1.179842    1.316637    1.020596
H      -0.488583   -0.698358   -0.351128
H       0.944367    0.163403   -0.889829
H       0.713558   -2.645574    0.817490
H       1.994687   -2.920346    3.165678
H       3.272955   -2.068337    2.229253
H       1.623609   -0.547609    4.156381
H       1.487370    1.281163    2.346499
H       3.711349    1.127677    2.124771
