19

C      -0.135916    0.952058    0.911882
C      -0.042176   -0.413864    0.228668
C       0.589741   -0.327860   -1.170425
O       1.901550    0.136884   -1.024273
C       2.524480    0.559001   -2.223359
C       0.537485   -1.702241   -1.861115
O       1.522297   -2.366551   -2.089730
C      -0.796093   -2.154923   -2.232082
C      -1.902570   -2.511906   -2.545383
H       0.851988    1.411924    0.986991
H      -0.785250    1.631635    0.348636
H      -0.548947    0.853645    1.920105
H       0.571448   -1.096385    0.827979
H      -1.035099   -0.865880    0.137949
H      -0.008276    0.365933   -1.791157
H       2.679696   -0.273608   -2.918388
H       1.934975    1.342834   -2.723688
H       3.495191    0.974155   -1.943537
H      -2.873531   -2.841518   -2.826546
