16

O      -0.049769    0.023461    0.314133
C      -0.068113    1.204925    0.115690
C      -1.303396    2.108099   -0.024239
C      -0.766438    3.446560    0.551263
C      -0.595952    3.281327    2.051911
C       0.647520    2.900794    2.360095
C       1.514375    2.884596    1.142118
C       0.690977    3.421790    0.030000
N       1.102869    2.018861   -0.030490
H      -1.568042    2.220209   -1.082820
H      -2.155487    1.676241    0.503215
H      -1.353738    4.314752    0.248973
H      -1.433618    3.319453    2.738971
H       1.008348    2.621867    3.341839
H       2.588292    3.013338    1.216783
H       1.048514    4.093251   -0.743451
