16

O      -0.175953    0.002174   -0.345798
C      -0.064288    1.165396   -0.064848
C       1.280449    1.890033    0.063023
C       1.355701    2.761574    1.326806
C       1.638291    1.963026    2.609650
O       1.265848    2.380252    3.691234
C       2.424820    0.757530    2.413569
C       2.757355    0.333483    1.170250
N       2.393279    0.959280    0.006180
H      -0.950831    1.823589    0.080453
H       1.323990    2.553081   -0.814697
H       2.169138    3.487910    1.212046
H       0.432565    3.331904    1.460433
H       2.765940    0.217254    3.286973
H       3.376800   -0.547020    1.027358
H       2.381282    0.357228   -0.804475
