22

C      -0.257701    1.550371   -0.004820
C       0.030793    0.049698    0.006013
C       0.759844   -0.486959   -1.274222
C       1.927797   -1.324333   -0.701621
C       2.995978   -0.353513   -0.147422
C       2.313007    0.226069    1.134261
C       0.937088   -0.479460    1.149924
C       1.308792   -1.874546    0.602413
H       0.648777    2.141811   -0.169407
H      -0.958073    1.802706   -0.808475
H      -0.705852    1.879411    0.939578
H      -0.931854   -0.468190    0.100002
H       0.089748   -1.100567   -1.884482
H       1.120260    0.327644   -1.912279
H       2.325952   -2.064422   -1.399023
H       3.917699   -0.887484    0.104151
H       3.258961    0.421447   -0.873879
H       2.879733   -0.035876    2.033217
H       2.235135    1.315873    1.119206
H       0.447503   -0.459419    2.126890
H       0.439520   -2.518503    0.433837
H       2.028549   -2.410564    1.229741
