25

C      -0.097391    1.518265    0.010979
C       0.014288   -0.007381    0.024583
C       0.833260   -0.691949   -1.131888
C       1.717297   -1.643222   -0.293065
C       0.674813   -2.165617    0.736850
C       0.726021   -0.683381    1.224062
C       2.261395   -0.712031    0.851420
C       3.128427   -1.422345    1.905957
C       3.018945    0.564170    0.465896
H       0.864997    2.029353    0.067859
H      -0.597304    1.855794   -0.904164
H      -0.702196    1.863301    0.857390
H      -1.014220   -0.387114   -0.002998
H       0.190097   -1.244235   -1.823710
H       1.408094    0.023146   -1.726590
H       2.381384   -2.317629   -0.838364
H      -0.281829   -2.517043    0.339212
H       1.060931   -2.898857    1.440324
H       0.395029   -0.393571    2.224379
H       2.676517   -2.313405    2.342420
H       4.089889   -1.718299    1.470427
H       3.348106   -0.734377    2.730774
H       3.022354    1.281474    1.294863
H       4.066138    0.320162    0.250543
H       2.623189    1.072682   -0.411643
