16

C      -0.030046    1.466763   -0.022694
C       0.004984   -0.024626   -0.044688
N      -0.011708   -0.787488   -1.113638
C       0.035033   -2.090825   -0.655132
C       0.080400   -2.111596    0.713699
N       0.060956   -0.792341    1.091703
C       0.034030   -3.270342   -1.550573
N      -0.016637   -2.947916   -2.871573
O       0.073974   -4.414435   -1.126066
H       0.862820    1.888515    0.452912
H      -0.076523    1.829259   -1.050091
H      -0.904677    1.846030    0.518056
H       0.123067   -2.926374    1.415323
H       0.083784   -0.449751    2.037951
H      -0.051502   -1.981431   -3.150040
H      -0.025233   -3.685211   -3.554249
