18

C       1.161472   -0.952445   -0.421913
C       0.005532   -0.191972   -0.974288
N       0.547017    0.125023    0.346483
C      -0.193522   -0.235858    1.534938
C      -1.355010    0.711812    1.996438
C      -2.222730   -0.533482    2.202838
N      -2.393800   -1.140208    0.864661
C      -1.168369   -1.435260    1.656536
H       0.971601   -1.978031   -0.108689
H       2.172028   -0.766720   -0.776084
H       0.175901    0.571988   -1.728626
H      -0.953739   -0.693970   -1.025594
H       0.536223   -0.324368    2.347441
H      -1.118303    1.266843    2.905626
H      -1.730281    1.394270    1.231078
H      -2.941510   -0.721698    2.990104
H      -3.008460   -1.946659    0.973928
H      -0.927716   -2.456129    1.929736
