17

C       1.010576   -0.706425    1.243048
O       0.186093   -0.381738    0.132990
C       0.767587   -0.504258   -1.128334
C       2.149775    0.146673   -1.280177
O       2.144337    1.482447   -0.835532
C       0.586150   -1.863104   -1.861153
O      -0.259677   -1.207952   -2.866527
C      -0.191640   -0.002564   -2.226519
O      -0.688037    1.033817   -2.535101
H       1.440140   -1.714951    1.156738
H       1.815069    0.025460    1.373128
H       0.359949   -0.680069    2.119213
H       2.891868   -0.385100   -0.675661
H       2.463455    0.053444   -2.332441
H       1.413144    1.938605   -1.270965
H       1.463129   -2.309504   -2.334293
H       0.016524   -2.601135   -1.294826
