14

C       0.126568   -1.203708   -0.005647
C       0.016607   -0.003493    0.002438
C      -0.091125    1.400285    0.011682
C      -1.196219    2.230862    0.031278
C      -0.731029    3.578510    0.032437
C       0.657160    3.523260    0.013314
N       1.027784    2.216469    0.001045
C      -1.519876    4.752465    0.049630
C      -2.200985    5.745832    0.064366
H       0.210445   -2.262054   -0.012580
H      -2.224898    1.910017    0.043441
H       1.382473    4.320019    0.007890
H       1.973092    1.873712   -0.013612
H      -2.800234    6.621751    0.077344
