11

O       0.095225    1.333175    0.090125
C       0.071412   -0.004412    0.064182
N       0.079782   -0.602159   -1.128995
C       0.055463   -1.932975   -1.113049
N       0.023882   -2.723464   -0.041615
C       0.016796   -2.086529    1.116294
F      -0.014356   -2.844885    2.199440
C       0.039299   -0.711789    1.265608
H       0.115338    1.623868   -0.833353
H       0.061968   -2.428213   -2.080343
H       0.032610   -0.224939    2.230218
