19

O       0.002362    0.394784   -0.469053
C       0.063555    1.585679   -0.242696
N       1.195613    2.248341    0.126810
C       2.423168    1.586759    0.440217
C       3.196832    0.923375   -0.666011
C       3.703762    2.205576   -0.057423
N      -1.034561    2.502164   -0.363834
C      -2.019125    2.451405    0.738169
C      -2.337260    1.887503   -0.596069
H       1.105639    3.237042    0.298499
H       2.451810    1.102320    1.413949
H       3.707711   -0.003532   -0.433777
H       2.766232    0.967352   -1.658396
H       3.621078    3.109824   -0.650805
H       4.568815    2.172558    0.594932
H      -1.828994    1.743909    1.541337
H      -2.414225    3.413699    1.049845
H      -2.979863    2.435352   -1.278043
H      -2.342762    0.806498   -0.693283
