12

F      -0.022100    0.047085    0.003755
C      -0.032642    1.367782    0.010801
N      -1.200640    1.959483    0.029315
C      -1.161704    3.297794    0.035784
C       0.036150    4.008329    0.023670
C       0.013764    5.498379    0.031743
O       0.989018    6.202714    0.022496
N       1.222887    3.372386    0.004679
C       1.193833    2.053670   -0.001817
H      -2.118787    3.813228    0.051121
H      -1.014566    5.924746    0.047496
H       2.132407    1.507251   -0.017064
