15

C       0.100316    1.541389    0.023758
C       1.252054    0.555188   -0.117411
C      -0.164049    0.079240    0.064718
C      -0.637321   -0.713263    1.283074
O      -1.242135   -1.877203    0.721835
C      -0.963547   -1.854785   -0.662592
O      -0.836186   -0.502203   -1.027920
H       0.008865    2.107254    0.945109
H      -0.215815    2.071667   -0.867522
H       1.688461    0.441914   -1.103351
H       1.946824    0.450255    0.709921
H       0.194475   -0.984870    1.945585
H      -1.394587   -0.177000    1.866779
H      -0.029650   -2.405382   -0.877721
H      -1.800831   -2.296451   -1.209859
