15

N      -0.142506    1.277493    0.279464
C      -0.061718    0.053316   -0.012301
O       1.159361   -0.516070   -0.345024
C       1.315772   -1.681608   -1.070079
O       2.419065   -2.028191   -1.389834
N       0.165656   -2.349240   -1.389992
C      -1.102251   -2.134968   -0.758048
C      -1.200391   -2.168996    0.741399
C      -1.236145   -0.840938   -0.007656
H       0.771217    1.726467    0.195300
H       0.348936   -3.259853   -1.784365
H      -1.939673   -2.472958   -1.357332
H      -2.128737   -2.489747    1.199308
H      -0.301662   -2.415617    1.295548
H      -2.176684   -0.308070   -0.038364
