16

C       0.040990    1.508430    0.468826
C      -0.038487    0.048997    0.127657
C      -1.211391   -0.628894    0.063039
C      -1.410356   -2.019304   -0.241610
C      -0.497832   -3.023036   -0.164775
C       0.854708   -2.851486    0.303475
N       1.584207   -1.793647    0.284762
C       1.233774   -0.590481   -0.320094
O       1.975671   -0.033500   -1.100487
H       0.636784    1.659352    1.377299
H       0.548969    2.048883   -0.334851
H      -0.949681    1.938901    0.632265
H      -2.122707   -0.056971    0.226304
H      -2.433497   -2.299689   -0.480596
H      -0.830430   -4.043924   -0.327842
H       1.309744   -3.733335    0.763546
