20

C       0.002786    1.522731   -0.214075
C       0.011122    0.004550    0.003516
C      -1.429445   -0.525150    0.058254
N       0.704817   -0.643949   -1.139385
C       1.587648   -1.401815   -0.645871
O       1.751619   -1.468956    0.698486
C       0.827183   -0.481971    1.252509
C       1.673526    0.528569    2.017999
O       2.391324   -0.098571    3.062474
H       1.013502    1.924752   -0.316714
H      -0.537571    1.748786   -1.136972
H      -0.498378    2.040843    0.609880
H      -1.949732   -0.302104   -0.877083
H      -1.440260   -1.609661    0.203121
H      -1.981399   -0.061457    0.883291
H       2.258762   -2.041315   -1.209375
H       0.194570   -1.017469    1.966868
H       2.349090    1.051042    1.324132
H       1.027562    1.278164    2.485512
H       2.897881   -0.811289    2.656274
