16

C      -0.000019    1.361936   -0.066245
N       0.071560   -0.076229    0.035537
N       0.031916   -0.819855   -1.107765
C       0.015683   -2.071918   -0.679039
O      -0.006691   -3.113733   -1.538236
C       0.033260   -2.164977    0.726318
C       0.063078   -0.849086    1.153547
C       0.084886   -0.287878    2.538142
H       0.458515    1.819417    0.812714
H       0.545873    1.673991   -0.958015
H      -1.035914    1.713385   -0.148340
H      -0.011002   -2.740500   -2.428566
H       0.037194   -3.053683    1.334756
H       0.972892    0.329155    2.718779
H      -0.793974    0.333181    2.746586
H       0.095423   -1.103091    3.264306
