15

C       0.015433   -1.190139    0.000540
C      -0.013172    0.012877    0.022475
C      -0.050165    1.447150    0.052943
C      -0.729118    2.412847    1.027432
N      -0.086180    3.408474    0.073348
C       1.139437    2.468997   -0.072354
C       1.070228    2.534225   -1.599042
C      -0.377627    2.451961   -1.112453
H       0.040591   -2.251716   -0.018627
H      -1.823013    2.448034    1.028840
H      -0.336745    2.464725    2.047824
H       1.990937    2.558108    0.604320
H       1.369183    3.483102   -2.050632
H       1.456853    1.673907   -2.148872
H      -1.316975    2.520961   -1.663584
