19

O      -0.045996    1.435199    0.056526
C       0.018892    0.025426    0.027947
C       0.280320   -0.622252   -1.384983
C      -1.027921   -1.449791   -1.251572
C      -0.938013   -2.767606   -0.435262
C      -1.117842   -1.963994    0.909431
C       0.166242   -1.681191    1.645561
C       0.791819   -0.607971    1.160997
C      -1.368832   -0.675849    0.063062
H       0.842487    1.780297   -0.084736
H       0.188797    0.139101   -2.165241
H       1.217475   -1.170271   -1.519649
H      -1.678967   -1.464559   -2.125829
H      -1.789959   -3.423314   -0.635233
H      -0.018787   -3.352822   -0.529359
H      -1.926492   -2.331415    1.545204
H       0.550593   -2.331338    2.424755
H       1.762480   -0.239487    1.478824
H      -2.250986   -0.058680    0.225436
