18

C       0.106446    1.557302    0.032061
C      -0.016622    0.029306    0.108179
O       0.696933   -0.516481    1.202695
C       2.062179   -0.788253    0.930808
C       2.673942   -1.370017    2.174486
C       4.118281   -1.281555    2.416828
O       3.203362   -0.445233    3.122955
C      -1.426426   -0.374313    0.259583
N      -2.538763   -0.670545    0.350569
H       1.151309    1.840695   -0.117521
H      -0.481357    1.948359   -0.802778
H      -0.251913    2.005477    0.961142
H       0.342451   -0.415216   -0.834154
H       2.145382   -1.507617    0.098741
H       2.611368    0.123344    0.654807
H       2.115354   -2.197612    2.611370
H       4.610330   -2.051731    3.008194
H       4.757569   -0.771968    1.696335
