23

C      -0.028418    1.567992    0.004721
C       0.002096    0.037877   -0.033576
C       0.718428   -0.516575   -1.269768
C       0.748700   -2.047396   -1.310268
C       1.464541   -2.625088   -2.530049
C       1.549941   -4.147446   -2.515561
O       0.728140   -2.216187   -3.706862
C       1.413538   -1.755785   -4.765869
O       0.890031   -1.440695   -5.792902
H       0.985166    1.984290    0.015124
H      -0.542819    1.974943   -0.872682
H      -0.547686    1.934783    0.895460
H       0.491890   -0.342544    0.872920
H      -1.024550   -0.350341   -0.008257
H       0.225984   -0.142337   -2.175015
H       1.747620   -0.130364   -1.295796
H       1.250386   -2.433610   -0.413832
H      -0.274699   -2.443140   -1.290815
H       2.475706   -2.197306   -2.593668
H       2.099008   -4.490449   -1.633447
H       0.547583   -4.585262   -2.493174
H       2.064939   -4.518333   -3.406517
H       2.504495   -1.694535   -4.579102
