23

C       0.066659    1.551734    0.017171
C      -0.066538    0.040877   -0.203029
C      -1.457247   -0.568920   -0.015276
C      -2.492178    0.132972    0.835005
C      -2.635331    0.123126   -0.667501
C      -1.493441   -2.089285    0.034856
O      -2.789088   -2.643249   -0.003188
C      -0.406995   -2.949218   -0.568062
C      -0.578494   -2.864369    0.937529
H       1.089284    1.869408   -0.208381
H      -0.601765    2.128820   -0.629205
H      -0.141156    1.831988    1.053819
H       0.276999   -0.194910   -1.218455
H       0.637426   -0.456418    0.475795
H      -3.172524   -0.497409    1.395364
H      -2.231380    1.065442    1.320804
H      -2.449349    1.043373   -1.210077
H      -3.432643   -0.479089   -1.086362
H      -3.085150   -2.629630   -0.919564
H      -0.728080   -3.864871   -1.052665
H       0.462958   -2.482117   -1.013743
H       0.170309   -2.333404    1.513821
H      -1.020516   -3.716673    1.439683
