21

O      -0.201883    1.122949    0.580539
C      -0.471355   -0.260036    0.498555
C      -1.606631   -0.535336   -0.486588
O      -1.301935    0.059341   -1.751131
C      -1.917464   -2.019561   -0.655097
O      -2.296325   -2.540698    0.603714
C      -2.608374   -3.899321    0.572053
C      -3.565591   -4.384777    1.608804
C      -3.991856   -4.327772    0.153891
H      -0.255680    1.450844   -0.326346
H       0.422799   -0.829020    0.177410
H      -0.743354   -0.613814    1.496156
H      -2.505796   -0.015346   -0.139793
H      -0.552517   -0.418602   -2.127446
H      -2.718633   -2.147614   -1.397053
H      -1.024001   -2.547213   -1.038187
H      -1.770495   -4.541413    0.296438
H      -3.385932   -5.349997    2.068175
H      -3.977286   -3.632852    2.272043
H      -4.686550   -3.542217   -0.121989
H      -4.108422   -5.254454   -0.397137
