18

C      -0.008797    1.551738    0.015949
C       0.007013    0.021416   -0.011444
C       0.938645   -0.532332   -1.155289
C       2.300902   -0.662837   -0.473184
C       2.106666   -0.763117    0.835619
C       2.513273   -0.258184    2.196438
O       1.145921    0.226197    2.377830
C       0.682211   -0.588433    1.240071
H       1.005188    1.953375    0.102246
H      -0.456637    1.946078   -0.901739
H      -0.583579    1.924461    0.868069
H      -1.017054   -0.347616   -0.130039
H       0.567757   -1.489316   -1.546029
H       0.980434    0.154952   -2.008006
H       3.242690   -0.563345   -0.999624
H       2.759670   -1.022888    2.945012
H       3.257045    0.544987    2.233404
H       0.146516   -1.465706    1.627149
