20

C      -0.182083    1.516269    0.079815
C       0.030836    0.019405   -0.003268
N      -0.756221   -0.859404    0.900745
C       0.704517   -0.704303    1.105938
C       1.559952   -1.927260    0.793851
C       2.223612   -1.851695   -0.594250
O       2.797429   -3.101512   -0.963045
C       1.255974   -1.352840   -1.645005
C       0.248617   -0.524712   -1.375523
H       0.653861    2.060500   -0.372528
H      -1.094799    1.811504   -0.451434
H      -0.274808    1.843088    1.121047
H      -1.257241   -0.281071    1.574029
H       1.017518   -0.104682    1.957872
H       2.330793   -2.073339    1.556478
H       0.911439   -2.810738    0.811244
H       3.084389   -1.170368   -0.550122
H       2.077555   -3.739690   -1.025811
H       1.433702   -1.717181   -2.653847
H      -0.432105   -0.197834   -2.158803
