17

C      -0.016766    1.530063    0.028941
C      -0.062768    0.032267    0.043237
N       1.149025   -0.716068   -0.270938
C       0.535882   -0.957138    1.043761
C       1.306035   -0.696187    2.222246
N       1.896622   -0.491544    3.195825
C      -0.708484   -1.819189    0.966163
C      -1.931313   -1.011545    1.312968
C      -1.307425   -0.836817   -0.047021
H       0.950956    1.886771    0.388280
H      -0.158243    1.904843   -0.991071
H      -0.807330    1.951661    0.656690
H       0.981885   -1.502802   -0.895723
H      -0.709668   -2.902013    0.932186
H      -2.866400   -1.563353    1.338108
H      -1.864121   -0.217609    2.051022
H      -1.834845   -1.075215   -0.963378
