20

C       0.083852    1.600288    0.006491
C       0.250201    0.080672   -0.072553
C       0.519336   -0.560163    1.294156
C       0.680217   -2.077568    1.240398
C       2.046109   -2.641224    0.869947
C       1.559957   -2.747477    2.286413
C      -0.479061   -2.807632    0.796678
C      -1.459479   -3.401983    0.430351
H       0.983136    2.079851    0.409776
H      -0.107286    2.031265   -0.981177
H      -0.754592    1.874469    0.656572
H      -0.650145   -0.370514   -0.505366
H       1.073904   -0.167178   -0.754200
H       1.432376   -0.131908    1.727640
H      -0.297898   -0.311996    1.983622
H       2.073552   -3.540982    0.267354
H       2.825612   -1.920940    0.645036
H       2.006499   -2.103317    3.036386
H       1.250964   -3.720205    2.649767
H      -2.320543   -3.930913    0.105406
