17

O       0.537319    0.791429   -0.733877
C       0.041869   -0.264884    0.042760
C       0.027690   -0.140371    1.607210
C      -1.389937   -0.726017    1.595974
C      -1.986559   -1.801943    2.386125
O      -2.425567   -0.438445    2.513818
C      -1.477318   -0.511520    0.103538
C      -2.542570    0.147411   -0.655701
O      -2.263306   -1.254542   -0.800622
H       0.081346    1.597910   -0.469271
H       0.573915   -1.161020   -0.287504
H       0.797746   -0.684259    2.155944
H       0.028599    0.906740    1.926796
H      -2.698206   -2.476165    1.913364
H      -1.450376   -2.200103    3.246245
H      -3.477858    0.387848   -0.154302
H      -2.283380    0.759735   -1.517935
