18

C      -0.072777    1.583715    0.183058
C       0.212535    0.102166   -0.056591
C       1.289212   -0.259141   -1.097809
N       1.841373   -1.571500   -0.704068
C       1.882709   -1.554728    0.768168
C       3.140990   -1.010273    1.273826
C       4.153317   -0.521068    1.698119
C       0.707998   -0.616860    1.205057
O       0.273323   -0.500964    2.317060
H       0.851573    2.125899    0.407598
H      -0.532314    2.045596   -0.695714
H      -0.748795    1.704075    1.033772
H      -0.723656   -0.406973   -0.331977
H       0.911262   -0.303758   -2.121189
H       2.099676    0.479531   -1.073859
H       1.197571   -2.301727   -0.993549
H       1.721610   -2.556696    1.178460
H       5.056618   -0.107143    2.073112
