18

C       0.418011    1.551590   -0.070431
C       0.181579    0.056212   -0.003862
O       0.854023   -0.583153   -1.107377
C       1.064304   -1.929729   -0.703599
C       1.628728   -1.775159    0.702082
O       2.977164   -1.309269    0.656711
C       0.715723   -0.657136    1.289255
O       1.411863    0.173752    2.184053
H       1.480185    1.783940    0.038240
H       0.065552    1.946420   -1.027138
H      -0.116654    2.054365    0.739279
H      -0.894854   -0.157119   -0.099928
H       0.121439   -2.501408   -0.693653
H       1.761399   -2.401133   -1.400684
H       1.632936   -2.689269    1.298464
H       3.028713   -0.708366   -0.099276
H      -0.125109   -1.101107    1.833737
H       2.350908    0.021319    1.997681
