19

C      -0.006677    1.361515   -0.005065
O      -0.050886   -0.067385   -0.033851
C      -1.277976   -0.593291   -0.036699
N      -2.387291    0.052838   -0.060686
C      -3.425728   -0.945431   -0.032329
C      -3.527051   -1.910803   -1.200151
C      -2.750441   -2.321997    0.026427
C      -3.128092   -3.494172    0.888655
N      -1.339571   -1.977847   -0.049626
H       1.051501    1.625198   -0.004287
H      -0.507845    1.778111   -0.882724
H      -0.499122    1.745701    0.892578
H      -4.326842   -0.688840    0.515543
H      -4.489060   -2.390402   -1.349984
H      -2.979414   -1.679925   -2.108269
H      -4.215667   -3.594573    0.936192
H      -2.728780   -4.434296    0.488848
H      -2.757117   -3.372951    1.913277
H      -0.672382   -2.491445    0.508098
