18

C       0.003068    1.438348    0.344355
C       1.510768    1.444061   -0.104328
C       1.072099    0.280389   -1.022525
C       0.293864    0.790895   -2.286368
C      -0.875417    0.159474   -2.276196
C      -0.837436   -0.770069   -1.037925
C       0.290827   -1.820724   -1.339099
C       1.463272   -1.178687   -1.328261
N      -0.025527    0.010468   -0.075180
H      -0.219676    1.582770    1.403837
H      -0.595021    2.127668   -0.265597
H       1.885460    2.349396   -0.585124
H       2.180373    1.132328    0.698825
H       0.695051    1.473994   -3.023272
H      -1.679607    0.200379   -2.998489
H      -1.783301   -1.173189   -0.677020
H       0.095966   -2.859098   -1.568085
H       2.449328   -1.564548   -1.542782
