15

C      -0.018129    1.483798    0.073014
C      -0.000643   -0.016063   -0.035857
N      -0.022824   -0.600503   -1.178905
C      -0.005644   -2.021897   -1.257399
O      -0.025575   -2.577961   -2.337509
C       0.038361   -2.746837    0.012619
C       0.059694   -2.065128    1.177117
O       0.099792   -2.560093    2.430811
N       0.040366   -0.694628    1.166711
H       0.876772    1.850057    0.588936
H      -0.052100    1.906406   -0.929646
H      -0.892126    1.825988    0.638865
H       0.052968   -3.829444   -0.008846
H       0.111923   -3.523194    2.385307
H       0.056922   -0.204553    2.047593
