16

C      -0.042273    1.485594   -0.072054
C      -0.016204   -0.005015    0.028513
N      -0.013026   -0.779687   -1.059373
N       0.002976   -2.033910   -0.605577
C       0.020167   -2.110630    0.767224
C       0.048537   -3.314458    1.489549
C       0.082300   -4.337365    2.128493
C       0.003650   -0.789758    1.208343
N      -0.063221   -0.334730    2.525171
H       0.858479    1.940960    0.359281
H      -0.100744    1.784510   -1.120502
H      -0.903886    1.906866    0.458681
H       0.001127   -2.803201   -1.252554
H       0.101661   -5.240366    2.686449
H       0.203123   -1.040107    3.200169
H       0.461387    0.515377    2.684213
