19

C      -0.057684    1.516574   -0.049104
C      -0.040299    0.002788    0.001287
C      -0.760653   -0.694112    1.118265
C       0.763708   -0.669929    1.099360
C       1.486161   -1.957299    0.862632
O       2.012635   -2.591840    1.735824
O       1.492382   -2.435608   -0.412762
C       1.302048   -1.502288   -1.489417
C       0.004650   -0.718928   -1.349929
H       0.813883    1.906551   -0.587441
H      -0.956221    1.879800   -0.561040
H      -0.048732    1.948136    0.956651
H      -1.241967   -0.096851    1.885052
H      -1.254496   -1.636735    0.906507
H       1.237139   -0.056855    1.857679
H       2.162089   -0.820609   -1.523613
H       1.315902   -2.110081   -2.397013
H      -0.845162   -1.400743   -1.460707
H      -0.059917    0.005801   -2.168521
