13

O      -0.025568   -0.012033    0.004540
C      -0.037368    1.172292    0.011432
C      -0.991998    2.370648    0.027360
C      -0.011763    2.971447    1.093874
C       0.958147    2.381889    0.008310
C      -0.032787    2.983280   -1.051469
C       2.390250    2.408513   -0.005582
N       3.546783    2.413784   -0.016892
H      -2.077497    2.386291    0.038078
H      -0.009609    4.062023    1.139384
H       0.011983    2.515442    2.083875
H      -0.028497    2.538222   -2.046713
H      -0.031407    4.074291   -1.084988
