17

C      -0.047156    1.515116    0.100168
C      -0.010071    0.028876   -0.002221
C      -0.034795   -0.775104   -1.125650
N      -0.129486   -0.298024   -2.466209
C       0.013826   -2.138526   -0.689312
N      -0.080226   -3.245224   -1.561620
C       0.068830   -2.125852    0.684670
N       0.054324   -0.800944    1.085756
H       0.905952    1.942595    0.439014
H      -0.265385    1.925563   -0.888559
H      -0.824000    1.860723    0.793462
H       0.768715   -0.307718   -2.941803
H      -0.754367   -0.887504   -3.008245
H       0.544779   -3.145392   -2.354472
H       0.139051   -4.117053   -1.095469
H       0.104556   -2.929310    1.402407
H       0.085969   -0.491724    2.040169
