18

O      -0.047505    1.030992    1.429290
C       0.014428    1.447505    0.302436
C       1.206585    1.255159   -0.622937
N       1.328510    2.389361   -1.526434
C       2.106136    3.557164   -1.114139
C       3.596467    3.331098   -1.485313
C       3.661806    1.963831   -2.162717
C       2.238469    2.299177   -2.705876
C       2.581105    3.826117   -2.501097
H      -0.821679    2.012211   -0.168102
H       2.092962    1.032759   -0.011766
H       0.988387    0.361886   -1.227911
H       1.787263    4.244176   -0.340105
H       4.393773    3.891370   -1.014275
H       4.388919    1.968111   -2.978659
H       3.790863    1.057462   -1.561514
H       1.835054    1.815524   -3.594383
H       2.523207    4.694906   -3.138887
