16

C      -0.052146    1.499589   -0.053313
C       1.269813    0.762098    0.016265
C      -0.023154    0.004493   -0.008425
C      -0.541614   -0.959379    1.090693
C      -0.956015   -1.917777   -0.037102
N      -1.922782   -1.178582   -0.887333
C      -0.459829   -0.975973   -1.077949
H      -0.385843    2.027374    0.834174
H      -0.325884    1.980474   -0.986599
H       1.892052    0.744181   -0.873385
H       1.827995    0.792863    0.946908
H       0.262987   -1.354117    1.717020
H      -1.361337   -0.598762    1.717861
H      -0.947406   -3.000333   -0.018623
H      -2.224134   -1.826677   -1.616156
H       0.010684   -1.169371   -2.035021
