13

N       0.165312   -3.706009   -0.019952
C       0.097988   -2.544236   -0.012605
C       0.024704   -1.185935   -0.004087
C      -0.044782    0.026647    0.003568
C      -0.107027    1.421874    0.012144
C      -1.199825    2.284471    0.031419
C      -0.702528    3.603185    0.032157
C       0.678286    3.525502    0.013417
N       1.030108    2.211970    0.001462
H      -2.231765    1.971662    0.043358
H      -1.282504    4.512397    0.044897
H       1.427744    4.300703    0.007788
H       1.969317    1.852167   -0.012977
