17

C      -0.268165    1.577193    0.303356
C      -0.352668    0.077873    0.577765
C       1.011366   -0.562771    0.760444
O       2.050843    0.026709    0.594976
C       1.031104   -2.036826    1.159123
C       0.336947   -2.429277    2.415786
O      -0.245547   -2.705739    1.156291
C       2.161005   -2.805953    0.707573
C       3.098112   -3.445306    0.313984
H       0.340651    1.776902   -0.581534
H      -1.266151    1.993300    0.141580
H       0.194679    2.105245    1.141432
H      -0.977433   -0.138117    1.452687
H      -0.846886   -0.456291   -0.244867
H       0.722365   -3.287760    2.961741
H      -0.157232   -1.665625    3.014802
H       3.929711   -4.006661   -0.034777
