19

C      -0.047085    1.529878   -0.078489
C       0.038615    0.013547   -0.007097
O       0.692242   -0.445042   -1.190566
C       0.901482   -1.830795   -1.154391
O       1.901211   -2.196706   -0.234993
C       1.667662   -1.691831    1.051080
C       2.251601   -0.336138    1.392760
C       0.758288   -0.510169    1.231955
O      -0.033182   -0.535228    2.388434
H       0.952563    1.972414   -0.105435
H      -0.587557    1.837908   -0.977329
H      -0.581639    1.920232    0.793452
H      -0.978212   -0.412102    0.029821
H      -0.046379   -2.345400   -0.915504
H       1.261886   -2.133646   -2.139316
H       1.653244   -2.456136    1.822656
H       2.631558   -0.184897    2.397130
H       2.793858    0.160877    0.595891
H       0.003320    0.338708    2.792517
