11

O      -0.018800   -0.059328   -0.000940
C      -0.017274    1.130279    0.008929
N       1.164800    1.923128    0.002501
C       1.242868    3.281487    0.012400
C       2.587224    3.542586    0.000205
N       3.266742    2.334930   -0.016873
N       2.422420    1.371324   -0.015483
C       3.247547    4.797019    0.003207
N       3.767265    5.830297    0.005923
H      -0.914496    1.772909    0.023283
H       0.378798    3.923957    0.026768
