20

C       1.859769   -3.888556    1.599106
C       1.036831   -2.804453    0.935284
N       0.085030   -1.948604    1.655275
C      -0.095166   -2.082960    3.091425
C       1.293318   -1.332906    1.085761
C       2.414012   -0.818262    1.971935
C       1.006249   -0.423450   -0.096051
H       2.312840   -3.581264    2.542859
H       1.241400   -4.770976    1.799413
H       2.669110   -4.202232    0.930823
H       0.645352   -3.124941   -0.032142
H       0.803428   -2.332082    3.673674
H      -0.496323   -1.143235    3.485548
H      -0.839286   -2.864367    3.279770
H       3.331861   -0.701116    1.385280
H       2.158338    0.168906    2.374896
H       2.644349   -1.469984    2.815319
H       0.737242    0.583640    0.244301
H       1.884040   -0.332678   -0.746634
H       0.172270   -0.811998   -0.685235
