16

O      -0.018837    1.372150   -0.035265
C       0.066984   -0.003961   -0.041159
C       0.797930   -0.849931   -1.078795
C      -0.201176   -2.020200   -0.739505
C      -1.100479   -0.989166    0.000728
C      -0.225057   -0.833999    1.199522
O       0.521321   -2.013695    1.470217
C       0.417483   -2.835200    0.367356
N       0.826973   -4.025703    0.304918
H       0.742680    1.726716    0.438021
H       0.606128   -0.468430   -2.083815
H       1.867812   -1.043183   -0.949961
H      -0.589473   -2.605233   -1.566588
H      -2.173332   -0.864137   -0.046729
H      -0.560206   -0.325603    2.093843
H       1.237508   -4.312437    1.195496
