17

C       0.075803    1.281139   -0.249475
O      -0.051119    0.035717    0.405966
C      -1.302621   -0.534557    0.262750
C      -1.627918   -1.359136   -1.035162
O      -0.632618   -2.364515   -0.594074
C      -1.381969   -2.032306    0.643044
C      -2.669221   -2.108380   -0.193192
C      -4.109644   -2.106262    0.021560
O      -3.397944   -3.239085   -0.539502
H       1.072506    1.663312   -0.020359
H      -0.025300    1.180475   -1.339553
H      -0.674869    2.004231    0.105389
H      -2.106611    0.121385    0.631249
H      -1.636626   -1.072947   -2.085745
H      -1.095313   -2.531680    1.566951
H      -4.514765   -2.266309    1.019108
H      -4.767056   -1.586795   -0.673388
