18

C      -0.067657    1.490556    0.210027
C       1.473003    1.465788   -0.026936
C       2.199569    1.198492    1.299498
C       1.481602    0.031533    2.027194
C       0.862200   -0.845171    0.943188
O       1.870418   -1.029276   -0.102498
C       1.282473    0.085440   -0.786790
C      -0.056145   -0.028684   -0.037982
H      -0.427065    1.874579    1.169881
H      -0.603761    2.003194   -0.593853
H       1.913519    2.292169   -0.587908
H       3.237257    0.920848    1.095630
H       2.215255    2.101602    1.918210
H       2.187621   -0.549758    2.628209
H       0.701416    0.393221    2.706844
H       0.479566   -1.803505    1.303329
H       1.430177    0.067060   -1.868160
H      -0.930852   -0.556893   -0.418123
