18

C      -0.306997    1.727829    0.375277
C       0.103370    0.275630    0.116073
C       0.885077    0.050232   -1.188111
C       1.933533   -1.007765   -0.830564
O       2.714156   -1.529846   -1.579661
C       1.810470   -1.275914    0.679272
N       0.948620   -0.225423    1.228160
C      -1.180337   -0.568041    0.152543
O      -1.688684   -1.103466   -0.796424
H       0.581756    2.367897    0.411029
H      -0.960735    2.097573   -0.419246
H      -0.833404    1.819981    1.330962
H       0.251646   -0.303277   -2.005457
H       1.397657    0.958878   -1.522168
H       1.357479   -2.268492    0.814628
H       2.791063   -1.303211    1.159665
H       1.516400    0.535878    1.584269
H      -1.609562   -0.643568    1.175957
