12

N      -0.179644    1.318175    0.010949
C      -0.002653    0.077331    0.002714
O      -1.141661   -0.711761    0.006824
C      -1.040978   -2.049947   -0.001088
C      -2.230023   -2.794507    0.003104
N      -2.170828   -4.106150   -0.004208
N      -0.962932   -4.699517   -0.015567
N       0.134164   -4.000966   -0.019325
N       0.124195   -2.661815   -0.012193
H       0.717692    1.800418    0.007087
H       0.920473   -0.498934   -0.007154
H      -3.206188   -2.319505    0.012287
