18

C      -0.355287    1.776580    0.144930
C       0.088713    0.305602    0.108052
C       0.923281   -0.053285   -1.145566
N       1.856108   -1.047181   -0.649730
C       1.996004   -1.104805    0.708156
O       2.763002   -1.810001    1.323952
C       1.002645   -0.090618    1.291246
C      -1.179158   -0.548053    0.167298
O      -1.592875   -1.256649   -0.710769
H       0.516684    2.434483    0.207730
H      -0.922253    2.042133   -0.753420
H      -0.989519    1.977026    1.015105
H       0.279591   -0.463002   -1.928632
H       1.440169    0.832660   -1.539130
H       2.455434   -1.593596   -1.247426
H       1.563642    0.769531    1.672815
H       0.469963   -0.528237    2.140502
H      -1.731491   -0.444673    1.130477
