16

N       0.164467    1.415907   -0.100421
C      -0.007910    0.017518   -0.027450
C      -1.097861   -0.807541   -0.082238
C      -0.621335   -2.166868   -0.036664
C      -1.365781   -3.363579   -0.079326
C      -1.981568   -4.401456   -0.116488
C       0.762152   -2.104146    0.068851
N       1.708670   -3.119305    0.237133
N       1.119870   -0.785958    0.068258
H      -0.597973    1.844412   -0.611215
H       0.196276    1.850072    0.818290
H      -2.129858   -0.501296   -0.150107
H      -2.535080   -5.306250   -0.144486
H       1.238398   -4.016023    0.293417
H       2.385635   -3.161184   -0.518914
H       2.059849   -0.433255    0.129626
