21

O      -0.020107    1.332320    0.418920
C      -0.038969   -0.002238   -0.081137
C      -1.452129   -0.491441   -0.076316
C      -2.548055    0.161295   -0.917421
C      -3.706206   -0.765897   -0.481789
C      -3.104899   -2.166037   -0.755025
C      -1.809975   -1.965918    0.027535
C      -2.131423   -1.023810    1.174493
C      -3.612412   -0.677499    1.061465
H       0.871505    1.676891    0.311949
H       0.366590   -0.038120   -1.106043
H       0.585743   -0.666102    0.538833
H      -2.711200    1.208723   -0.647514
H      -2.342978    0.105914   -1.992931
H      -4.683230   -0.564235   -0.920201
H      -3.722204   -2.977579   -0.354609
H      -2.937609   -2.352257   -1.821449
H      -1.049203   -2.731710    0.112474
H      -1.606873   -1.072916    2.119864
H      -3.845454    0.322783    1.440957
H      -4.262238   -1.401088    1.565963
