19

C      -0.123578    1.568955   -0.155096
C      -0.073815    0.042533   -0.024728
C       0.823382   -0.608761   -1.147116
C       2.037338   -0.596867   -0.136274
C       0.972323   -0.496764    0.921847
C       0.487613   -1.105648    2.008029
C      -1.002301   -1.048429    1.947554
O      -1.786577   -1.409620    2.791876
C      -1.380959   -0.552377    0.520299
H       0.861275    1.993919   -0.373500
H      -0.798749    1.857010   -0.968175
H      -0.490897    2.026911    0.768846
H       0.516516   -1.630077   -1.382239
H       0.947580   -0.037429   -2.070435
H       2.700756   -1.462891   -0.101600
H       2.639431    0.309306   -0.248521
H       1.015751   -1.672081    2.764181
H      -2.228967    0.136051    0.555170
H      -1.697060   -1.433198   -0.050666
