22

C      -0.474050    1.356222   -0.020326
N      -0.193273   -0.062595    0.003859
C       0.152678   -0.734173   -1.141987
O       0.178432   -0.259637   -2.260011
C       0.515311   -2.163132   -0.744226
C      -0.006007   -2.296397    0.691092
C      -0.043611   -0.843920    1.242363
C       1.272922   -0.484638    1.958073
C      -1.233732   -0.631087    2.185468
H       0.268617    1.929335    0.548571
H      -0.438031    1.670398   -1.064987
H      -1.466402    1.578275    0.386986
H       0.081904   -2.875603   -1.448302
H       1.604208   -2.267836   -0.809553
H      -1.021903   -2.703438    0.682759
H       0.604855   -2.946345    1.322052
H       2.137196   -0.688139    1.318369
H       1.299071    0.574028    2.234113
H       1.381116   -1.069784    2.876892
H      -1.170133   -1.327115    3.027992
H      -1.252072    0.383238    2.596634
H      -2.179170   -0.809939    1.664469
