17

O      -0.621103    1.200219    0.857762
C      -0.026812    0.144408    0.105042
C       0.839198   -0.806342    0.965958
N      -0.002223   -1.912780    1.457993
C      -1.262601   -1.490724    2.076554
C      -1.239605   -1.886620    0.634117
C      -1.159380   -0.765111   -0.402337
C      -1.792794   -3.150404    0.213600
N      -2.263993   -4.143437   -0.145141
H       0.084743    1.758450    1.200017
H       0.551367    0.560718   -0.730199
H       1.635853   -1.248200    0.357709
H       1.306816   -0.286329    1.808592
H      -1.655184   -2.193441    2.804807
H      -1.423167   -0.438640    2.287560
H      -2.091042   -0.204691   -0.502572
H      -0.906831   -1.188620   -1.378095
