18

C      -0.879551    1.171700   -0.312139
C      -0.039145   -0.099597   -0.351282
C       1.448002    0.134961   -0.760602
N       2.137395   -0.822867    0.107447
C       1.248265   -1.103300    1.118473
N       1.673613   -1.792439    2.255893
C       2.963146   -2.030026    2.643014
O       3.959703   -1.693421    2.038857
N       0.023437   -0.762630    0.968036
H      -0.456308    1.890541    0.397093
H      -0.921265    1.643975   -1.299761
H      -1.900986    0.944495    0.004529
H      -0.500703   -0.803288   -1.059966
H       1.639895   -0.070670   -1.816717
H       1.759001    1.168928   -0.547625
H       3.115388   -0.738564    0.348391
H       0.922807   -2.058157    2.876348
H       3.001002   -2.581746    3.599846
