13

O      -0.066078    1.307015    0.009555
C       1.233827    1.717422   -0.000345
N       2.137653    0.796885   -0.014052
C       1.393002   -0.383109   -0.013359
C       0.028842   -0.060788    0.001269
N      -1.002420   -0.869960    0.006615
C      -0.651910   -2.165633   -0.003713
C       0.670811   -2.627992   -0.018713
C       1.736551   -1.729068   -0.023900
H       1.386875    2.786372    0.003991
H      -1.472755   -2.876761    0.000168
H       0.854062   -3.696223   -0.026253
H       2.769958   -2.055148   -0.035441
