21

C       0.024672    1.430420    0.004439
O      -0.007704    0.020067   -0.040444
C       0.663898   -0.556557   -1.157775
C       2.157405   -0.729567   -0.858992
O       2.396032   -1.791450    0.056509
C       0.003777   -1.905630   -1.460085
O       0.812752   -2.753766   -2.228932
C      -0.927154   -2.552402   -0.463925
C      -1.459386   -1.975359   -1.760861
H       1.046463    1.827136    0.090744
H      -0.441461    1.871523   -0.889049
H      -0.541747    1.736253    0.887523
H       0.559965    0.105705   -2.032880
H       2.688921   -0.987544   -1.778083
H       2.572994    0.218433   -0.486373
H       1.809495   -1.644845    0.808056
H       1.507372   -3.062737   -1.630995
H      -0.862780   -3.632274   -0.389858
H      -1.156738   -2.027878    0.454273
H      -2.033610   -1.057124   -1.703072
H      -1.760640   -2.665827   -2.539763
