13

N       0.171686    1.410017    0.086612
C      -0.012770    0.009003    0.003252
C      -1.103239   -0.817973   -0.104937
C      -0.635260   -2.170891   -0.146615
C       0.735194   -2.109695   -0.061109
O       1.713382   -3.054208   -0.051060
N       1.112578   -0.804607    0.028898
H      -0.194701    1.887723   -0.729974
H      -0.292499    1.803721    0.898268
H      -2.133014   -0.496567   -0.150232
H      -1.230384   -3.067526   -0.228633
H       1.294499   -3.917149   -0.120746
H       2.057063   -0.467493    0.103038
