21

C      -0.051646    0.709210   -2.141624
C       0.082033   -0.362724   -1.083374
C       1.340842   -0.609612   -0.307043
C       2.612011    0.186702   -0.499515
C       0.138042    0.008903    0.392403
C      -0.015528    1.380541    1.076182
C      -0.852846    0.697531    2.208734
C      -0.660739   -0.647155    1.474921
O      -1.010272   -1.777185    1.682228
H       0.512252    1.612002   -1.893709
H       0.310816    0.346374   -3.109751
H      -1.099798    1.000235   -2.268763
H      -0.514571   -1.252667   -1.272360
H       1.504031   -1.648561   -0.028229
H       2.415665    1.239637   -0.717174
H       3.234762    0.147232    0.400586
H       3.202484   -0.219415   -1.328205
H       0.918595    1.830816    1.420595
H      -0.568424    2.125219    0.498473
H      -0.410483    0.724042    3.208476
H      -1.896612    1.015107    2.283862
