18

O      -0.006636   -0.060511    0.016862
C       0.027799    1.143179    0.055830
C       1.294154    1.967763    0.025861
C       1.283842    3.061772   -1.086800
C       1.425710    4.299053   -0.213411
C       2.409418    4.051005    0.959828
C       1.470236    4.925787    1.800294
N       0.467155    4.101627    0.987849
C       1.411272    2.898389    1.239482
H      -0.904197    1.748108    0.121740
H       2.145243    1.285810   -0.046737
H       2.105416    2.940834   -1.796979
H       0.346371    3.078054   -1.652333
H       1.369404    5.281941   -0.684796
H       3.504679    4.014261    0.940966
H       1.415178    4.741962    2.876925
H       1.429388    5.997200    1.584724
H       1.341357    2.459770    2.236761
