15

C       0.057336    1.438750    0.164505
N       0.036911   -0.005176    0.070554
C       0.515894   -0.608397   -0.941320
N       0.580817   -1.983985   -1.000767
C      -0.079823   -2.747555    0.044642
C       0.193705   -4.175303   -0.115025
N       0.394250   -5.304392   -0.249000
C       1.074884    0.045401   -2.117946
N       1.497392    0.585064   -3.048861
H       0.645553    1.732837    1.041193
H       0.468140    1.947339   -0.717706
H      -0.963534    1.798245    0.333282
H       0.648418   -2.407562   -1.913246
H       0.289442   -2.405158    1.016438
H      -1.167489   -2.585037    0.056450
