19

C       0.735994    1.620612    0.139661
C       1.175762    0.325057   -0.473374
C      -0.219422    0.436542    0.123412
C      -0.543096   -0.249110    1.340344
C      -0.816994   -0.826409    2.364011
C      -1.168498   -1.522204    3.582369
C      -2.470490   -1.123604    4.335330
O      -2.903959   -2.495037    4.392375
C      -1.863036   -2.911453    3.489571
H       1.155718    1.899844    1.098554
H       0.503591    2.453282   -0.514550
H       1.248464    0.258669   -1.553030
H       1.894894   -0.277633    0.068125
H      -1.031751    0.500694   -0.594983
H      -0.314523   -1.555166    4.265427
H      -2.347444   -0.685106    5.331471
H      -3.146716   -0.498387    3.739016
H      -2.248583   -3.141779    2.488534
H      -1.299607   -3.769113    3.872557
