17

C       0.076351    1.466540    0.121841
C       1.305090    0.638722   -0.001499
N      -0.055874    0.001003   -0.002493
C      -0.191479   -0.512695   -1.416945
C       0.517639    0.451785   -2.372239
N       1.384413   -0.576428   -3.139324
C       2.644033    0.154171   -2.639829
C       1.724771    0.283794   -1.411557
C       1.175841   -1.142607   -1.718091
H      -0.211420    1.858343    1.093850
H      -0.208514    2.098224   -0.715059
H       1.938188    0.426316    0.853959
H      -1.157527   -0.983608   -1.593636
H       0.182252    1.360899   -2.870650
H       3.521964   -0.493931   -2.560542
H       2.875385    1.059405   -3.209114
H       1.598727   -2.100350   -1.414458
