17

O      -0.064216    1.493592   -0.020951
C       0.077135    0.111708   -0.076398
C      -1.213575   -0.761188    0.052517
O      -2.350776   -0.053492   -0.431997
C      -2.597550   -0.368257   -1.813968
C      -1.915318   -1.715831   -2.088461
C      -0.745603   -1.688967   -1.100115
C       0.337070   -0.620741   -1.425881
O       0.985911   -0.395419   -2.403566
H      -0.976339    1.672187   -0.291250
H       0.839389   -0.203188    0.649560
H      -1.444606   -1.173918    1.035455
H      -3.680793   -0.388144   -1.959169
H      -2.179052    0.418144   -2.456912
H      -2.583950   -2.551874   -1.863736
H      -1.580278   -1.805710   -3.124620
H      -0.353641   -2.670329   -0.828890
