19

C      -0.032423    1.420076    0.257185
C       0.016701   -0.064566    0.047708
C      -0.841832   -1.017853    0.797917
C       0.652181   -1.157276    0.994944
C       1.265797   -1.871628   -0.208747
C       0.665523   -0.766916   -1.146381
O      -0.268764   -1.153477   -2.129366
C       1.298729   -0.845196    2.272356
O       0.792035   -0.191754    3.159613
H       0.893658    1.902979   -0.072871
H      -0.861686    1.862545   -0.306898
H      -0.178313    1.652769    1.315968
H      -1.361260   -0.595929    1.651511
H      -1.363849   -1.814891    0.276546
H       2.359156   -1.882945   -0.209763
H       0.893585   -2.884656   -0.392033
H       1.461237   -0.144512   -1.578038
H       0.204815   -1.596442   -2.840896
H       2.340481   -1.228439    2.371112
