18

C       0.110569    1.565851   -0.053337
C       0.078065    0.047842    0.011079
O       0.664352   -0.439850   -1.214697
C       1.145334   -1.701138   -1.221834
N       1.419177   -2.471810   -0.255184
C       1.306568   -1.958911    1.091817
C       2.629854   -1.335319    1.603471
O       2.095404    0.000151    1.466720
C       0.767296   -0.515686    1.239869
H       1.143959    1.915707   -0.003859
H      -0.343381    1.915203   -0.983774
H      -0.443756    1.991220    0.788666
H      -0.959959   -0.315941    0.030301
H       1.302481   -2.031562   -2.247543
H       0.860175   -2.718219    1.736498
H       2.871680   -1.569345    2.647878
H       3.503774   -1.504580    0.967898
H       0.124034   -0.353896    2.116890
