23

C      -0.025809    1.424571    0.026311
O      -0.007912    0.007776   -0.008623
C      -1.263457   -0.576838    0.021557
C      -1.116178   -2.079392   -0.185795
C      -2.475692   -2.776383   -0.012091
C      -3.174579   -2.361175    1.300122
C      -2.526472   -2.980356    2.546069
C      -3.178596   -0.826766    1.377756
O      -1.865030   -0.297276    1.279646
H       1.011014    1.755741   -0.062572
H      -0.605451    1.835098   -0.814635
H      -0.450853    1.798864    0.963423
H      -1.912077   -0.140728   -0.769173
H      -0.705172   -2.268723   -1.182448
H      -0.384887   -2.442832    0.543196
H      -3.123909   -2.506896   -0.856820
H      -2.350875   -3.863824   -0.052576
H      -4.220388   -2.692096    1.252545
H      -1.515205   -2.594588    2.700304
H      -3.108048   -2.745373    3.443977
H      -2.468288   -4.070401    2.461280
H      -3.813081   -0.411793    0.575231
H      -3.577019   -0.476084    2.334877
