22

C       0.020050    1.523332    0.256189
C      -0.144777    0.019935    0.010943
C       0.611318   -0.473772   -1.214815
C       2.165370   -0.496388   -1.180219
C       2.144790   -1.882386   -1.916524
C       3.097459   -2.968223   -1.410214
C       0.631951   -1.996421   -1.514531
C       2.292134   -1.711966   -3.361179
N       2.410272   -1.579337   -4.504219
H       1.072606    1.789928    0.401613
H      -0.353716    2.105515   -0.593167
H      -0.528929    1.843024    1.146964
H       0.199073   -0.538209    0.892801
H      -1.209980   -0.219795   -0.105194
H       0.273208    0.072309   -2.102795
H       2.709648    0.315673   -1.664585
H       2.546790   -0.625220   -0.162023
H       2.981217   -3.086905   -0.328975
H       2.887818   -3.930239   -1.887556
H       4.139280   -2.706533   -1.618497
H       0.536094   -2.591859   -0.601019
H      -0.055935   -2.385096   -2.267215
