14

O       0.058817   -0.119874   -0.189216
C       0.039402    1.072527   -0.130136
O      -1.182414    1.733100   -0.000020
C      -1.265724    3.087390   -0.418674
C      -0.585534    4.430658    0.034133
N       0.800034    4.389375    0.665004
C       0.971702    3.283679   -0.296098
C       1.160294    2.029373    0.112011
C      -0.178075    3.675686   -1.215694
H      -2.289953    3.268640   -0.734533
H      -1.201668    5.314726    0.166244
H       1.249814    5.237821    0.308287
H       1.764035    1.809918    0.987590
H      -0.144231    3.921319   -2.270976
