15

C      -0.027010    1.547258    0.010775
C      -0.005559    0.048545   -0.025104
C      -0.037746   -0.681807   -1.157704
N      -0.016786   -2.058035   -1.158693
C       0.038948   -2.832333   -0.008366
O       0.056786   -4.042900   -0.022490
N       0.071245   -2.063922    1.141309
C       0.054269   -0.663565    1.255391
O       0.087984   -0.134603    2.348570
H       0.863594    1.937880    0.513690
H      -0.071966    1.967828   -0.997266
H      -0.888081    1.911198    0.580675
H      -0.082258   -0.224818   -2.139930
H      -0.041938   -2.578037   -2.021131
H       0.112297   -2.579630    2.010225
