18

C       0.018232    1.512656    0.057673
C       0.008872   -0.005156   -0.028945
C       0.729046   -0.546992   -1.263522
C       0.850246   -2.044947   -1.166071
N       0.914215   -2.733050   -2.348420
C       0.866119   -2.623437    0.055679
C       0.857035   -1.842778    1.288073
O       1.085765   -2.294033    2.383298
O       0.615181   -0.493458    1.173683
H       1.045193    1.889210    0.089807
H      -0.489225    1.949765   -0.807897
H      -0.494721    1.840459    0.964917
H      -1.029694   -0.366914   -0.056019
H       0.171156   -0.267214   -2.164636
H       1.729005   -0.098965   -1.345558
H       1.174132   -2.225908   -3.178474
H       1.228174   -3.690762   -2.323079
H       0.985628   -3.692692    0.185328
