21

C       0.052637    1.557651   -0.217234
C       0.109106    0.086294    0.182805
O       0.603040   -0.101051    1.508227
C      -1.260154   -0.578350    0.037717
O      -1.731769   -0.557579   -1.328016
C      -1.879275   -1.997269   -1.352178
C      -1.384262   -2.123117    0.103269
C      -0.146257   -2.967492    0.338874
O      -0.545836   -4.322825    0.169558
H       1.043126    2.014419   -0.142846
H      -0.312750    1.656351   -1.242929
H      -0.632856    2.110555    0.438465
H       0.826520   -0.431111   -0.462959
H       0.068688    0.441627    2.099164
H      -1.968629   -0.058720    0.704260
H      -2.917071   -2.296517   -1.536187
H      -1.234802   -2.462644   -2.108089
H      -2.161768   -2.458307    0.793410
H       0.643060   -2.700619   -0.381041
H       0.249658   -2.778128    1.345960
H       0.227184   -4.880644    0.295464
