17

C       0.318130    1.491413   -0.483795
C       0.070512    0.072258   -0.040113
N       1.218239   -0.836499   -0.020725
C       0.572810   -0.489999    1.259247
C       1.354742    0.275106    2.245380
N       2.291486    1.158077    2.085313
C       2.633766    1.544135    3.373735
C       1.872738    0.862328    4.259549
O       1.042838    0.039937    3.550528
H       1.268483    1.855996   -0.090993
H       0.345327    1.543097   -1.577442
H      -0.485193    2.148930   -0.134164
H      -0.883398   -0.348034   -0.360358
H       0.949638   -1.777942   -0.294353
H      -0.057790   -1.236055    1.735798
H       3.401081    2.278293    3.561402
H       1.787492    0.827046    5.331612
