21

C       0.055090    1.533633    0.195264
C      -0.016497    0.018790   -0.012883
O       0.770151   -0.677714    0.949551
C      -1.441528   -0.483343   -0.040073
C      -2.198420   -0.934091    1.176406
C      -1.958484   -1.921946    0.062272
C      -2.931429   -1.673924   -1.079791
O      -4.280012   -1.921996   -0.742287
C      -2.441876   -0.183426   -1.167279
H       1.096185    1.868420    0.195872
H      -0.482043    2.067333   -0.595209
H      -0.402961    1.811954    1.152418
H       0.451483   -0.225361   -0.976298
H       0.544353   -0.326084    1.817430
H      -1.598960   -1.123890    2.060619
H      -3.201710   -0.570099    1.377847
H      -1.399542   -2.834042    0.229552
H      -2.643897   -2.230468   -1.981808
H      -4.824838   -1.707216   -1.506233
H      -3.198549    0.577209   -0.948657
H      -1.967415    0.046415   -2.125880
