19

C      -0.506917    1.476133   -0.107409
C      -0.087257    0.021171    0.045764
C       1.049873   -0.535840   -0.954177
O       1.470661    0.235697   -2.030468
C       1.961138   -0.590671    0.289352
C       2.927336   -1.015017    1.425570
C       2.031591    0.211001    1.877004
O       2.324010    0.844542    0.589960
C       0.779829   -0.476898    1.262076
H       0.335540    2.156199    0.021041
H      -0.942726    1.642359   -1.098503
H      -1.266415    1.732246    0.638991
H      -0.976715   -0.612687   -0.022520
H       0.780534   -1.523169   -1.338176
H       1.838856    1.047845   -1.659559
H       2.747467   -1.987751    1.889559
H       3.986130   -0.782926    1.302179
H       2.152654    0.821476    2.776785
H       0.417625   -1.377560    1.759861
