14

O      -0.037653    1.394518   -0.066634
C      -0.006207    0.024013   -0.084585
C       0.939872   -0.805041    0.827416
C       1.618195   -1.530802   -0.320443
C       0.494907   -2.218037    0.388810
N      -0.538554   -1.963634   -0.667360
C       0.495877   -0.968225   -1.229645
C      -1.295549   -0.806659   -0.106801
O      -2.454490   -0.655740    0.090423
H       0.837539    1.730752    0.154513
H       1.290004   -0.570370    1.823778
H       2.644751   -1.822748   -0.486892
H       0.471680   -3.085493    1.034229
H       0.488141   -0.766611   -2.297074
