22

C      -0.011874    1.576667    0.103235
C       0.012060    0.047549    0.030370
C       0.695228   -0.479677   -1.235717
C       0.719282   -2.009149   -1.319115
C       1.455551   -2.534282   -2.557017
O       2.799747   -2.091468   -2.618229
C       1.372624   -4.077766   -2.634171
C       2.031847   -4.624929   -3.817107
N       2.541761   -5.063264   -4.756436
H       1.003125    1.988753    0.090055
H      -0.552004    2.004754   -0.748401
H      -0.501760    1.925475    1.017486
H       0.526570   -0.353680    0.913921
H      -1.015010   -0.338411    0.078338
H       0.181448   -0.079764   -2.120715
H       1.723692   -0.104588   -1.289321
H       1.201646   -2.424186   -0.420307
H      -0.306973   -2.399665   -1.320419
H       0.989058   -2.121453   -3.458980
H       3.254621   -2.388592   -1.821452
H       1.833668   -4.515383   -1.739169
H       0.324249   -4.396972   -2.635871
