19

C       0.061478    1.458495   -0.211167
C       0.020445   -0.028422    0.145530
O       0.711601   -0.297114    1.364444
C      -1.391051   -0.557353    0.191773
C      -2.421137   -0.324171    1.315440
C      -2.991692   -1.756769    1.042964
C      -1.946915   -1.929946   -0.067157
N      -2.056667   -0.870489   -1.068242
H       1.095121    1.813843   -0.242247
H      -0.402145    1.632535   -1.186362
H      -0.484316    2.054060    0.532297
H       0.557051   -0.595682   -0.622856
H       0.423220    0.352883    2.013757
H      -1.966368   -0.254372    2.306585
H      -3.098679    0.525403    1.177125
H      -2.839308   -2.428945    1.890293
H      -4.037390   -1.826401    0.724230
H      -1.444467   -2.847511   -0.352285
H      -2.997570   -0.484392   -1.131751
