25

C       0.042064    1.600038    0.117879
C       0.015997    0.073740   -0.017007
C      -1.392828   -0.537846   -0.062121
O      -2.109903   -0.225039    1.143074
C      -2.228977   -0.126059   -1.313130
C      -2.994589   -1.397191   -1.767570
C      -2.778126   -2.440191   -0.649873
C      -2.936509   -3.889977   -1.100750
C      -1.382966   -2.073132   -0.121474
H       1.070568    1.971890    0.143538
H      -0.465191    2.092311   -0.719086
H      -0.440024    1.925131    1.046282
H       0.554015   -0.223893   -0.925709
H       0.552486   -0.372458    0.828977
H      -2.321654    0.713416    1.127640
H      -2.910461    0.690200   -1.052458
H      -1.581733    0.250272   -2.111563
H      -4.054031   -1.207373   -1.962722
H      -2.566465   -1.776590   -2.703700
H      -3.493162   -2.236041    0.155720
H      -2.219789   -4.136519   -1.893696
H      -2.769058   -4.587207   -0.272739
H      -3.941934   -4.078555   -1.493096
H      -0.613219   -2.409719   -0.828873
H      -1.155365   -2.502772    0.858044
