19

C       0.099521    1.418589    0.119063
C       0.000994   -0.075475    0.071894
C       0.540773   -1.052919   -0.955762
C       1.282368   -1.002135    0.344516
C       0.509750   -2.147985    0.956803
C      -0.162830   -2.092895    2.123505
C      -1.561158   -1.559859    1.789542
C      -1.269560   -0.968316    0.363828
C      -0.421143   -2.078111   -0.287042
H       1.057240    1.763782   -0.285705
H      -0.695967    1.889908   -0.471310
H       0.017876    1.796710    1.145444
H       0.861378   -0.911900   -1.978771
H       2.225159   -0.528368    0.592366
H       0.307757   -1.846635    3.070667
H      -2.384155   -2.285794    1.714742
H      -1.858011   -0.830303    2.552647
H      -2.143789   -0.596792   -0.183283
H      -0.834246   -2.975162   -0.743894
