16

N       0.048687    1.412250    0.061236
C       0.069067   -0.005956    0.016766
C      -0.167075   -0.877288   -1.227759
C       0.692280   -1.827256   -1.877797
N       1.387411   -2.551037   -2.456537
C      -1.049038   -1.001769    0.023507
N      -0.544210   -1.708408    1.254524
C       0.817383   -2.241860    1.045683
C       0.653181   -0.785880    1.215979
H       0.913855    1.806715   -0.297456
H      -0.715861    1.797186   -0.482664
H      -0.715152   -0.294076   -1.967090
H      -2.122215   -0.884199   -0.067684
H       1.161724   -2.780286    1.924636
H       1.105244   -2.695903    0.108227
H       0.954292   -0.245045    2.106073
