21

C       0.090831    1.593727   -0.031290
C       0.099389    0.068452    0.002155
C       0.806173   -0.609737   -1.197625
C       1.275390   -1.970733   -0.681287
C       2.564770   -1.991532    0.096181
O       3.420553   -0.873485    0.113015
C       1.265461   -1.919694    0.845303
C       0.739690   -0.545197    1.291090
O       1.701414    0.274618    1.929527
H       1.109492    1.989709    0.006802
H      -0.388627    1.963300   -0.944123
H      -0.449661    2.006108    0.826258
H      -0.938419   -0.290916   -0.007062
H       0.134066   -0.723611   -2.052393
H       1.650667    0.000714   -1.542635
H       0.991059   -2.867031   -1.221582
H       3.099048   -2.939138    0.148314
H       3.785819   -0.750843   -0.769572
H       0.998274   -2.785815    1.440104
H      -0.043461   -0.685579    2.043483
H       2.508773    0.225039    1.401325
