14

N      -0.039129    1.349601    0.084994
C      -0.073773    0.009326   -0.062671
N      -1.137095   -0.672472    0.179716
C      -1.033636   -2.041845    0.117316
N       0.037781   -2.780319    0.220380
N      -0.436445   -4.073657    0.075813
C      -1.805891   -4.164451   -0.052590
O      -2.516199   -5.142001   -0.151976
N      -2.162771   -2.811597   -0.045753
H       0.738205    1.883433   -0.258978
H      -0.888180    1.835980    0.324935
H       0.868233   -0.446180   -0.380179
H       0.177122   -4.852505    0.236543
H      -3.103956   -2.470813   -0.132996
