23

C       0.380193    1.644835    0.025227
C      -0.028080    0.161891   -0.051641
C       0.541074   -0.474030   -1.330054
C       0.018236   -1.869121   -1.696719
C       0.553372   -3.019089   -0.834966
C       0.000589   -3.094338    0.591558
C       0.380072   -1.970036    1.533120
O       1.605200   -1.255105    1.313416
C       0.367447   -0.528668    1.245448
H       1.469787    1.745149    0.083661
H       0.039170    2.192225   -0.858840
H      -0.047424    2.132686    0.907239
H      -1.127263    0.121995   -0.105191
H       0.309720    0.207448   -2.157591
H       1.634277   -0.505468   -1.250698
H      -1.081241   -1.870146   -1.672574
H       0.295822   -2.068804   -2.738843
H       0.314349   -3.968159   -1.329333
H       1.646594   -2.957580   -0.789322
H      -1.096835   -3.160853    0.569342
H       0.344772   -4.031944    1.046567
H       0.225633   -2.231360    2.583630
H       0.210941    0.111571    2.118503
