12

O       0.114667    1.376550    0.077478
C       0.070655    0.040414    0.083560
N       0.078383   -0.650583   -1.054367
O       0.037604   -2.041586   -0.679773
C      -0.000874   -2.039588    0.634701
C       0.004715   -0.820845    1.194095
O       0.063687   -0.933435    2.573463
C      -0.231591   -2.325071    2.770006
O       0.015852   -3.051794    1.517992
H       0.161298    1.663445   -0.845388
H       0.421136   -2.733813    3.541643
H      -1.294319   -2.451370    3.017070
