22

C       0.022985    1.558163    0.168514
C      -0.002604    0.034089    0.059166
C      -1.431245   -0.500825   -0.064589
O      -2.384890    0.262009   -0.147505
N      -1.609090   -1.859225   -0.075380
C      -0.548581   -2.853569   -0.022860
C      -2.979018   -2.360638   -0.132652
C      -3.502092   -2.542765   -1.552560
O      -2.756525   -3.579495   -2.181736
H       1.053845    1.918224    0.236396
H      -0.454208    2.017824   -0.699495
H      -0.523119    1.895417    1.052681
H       0.578031   -0.291056   -0.813710
H       0.485372   -0.421124    0.929425
H       0.426088   -2.392045   -0.169814
H      -0.538019   -3.374843    0.944875
H      -0.704259   -3.591894   -0.813049
H      -3.015676   -3.321484    0.392559
H      -3.624058   -1.647470    0.384299
H      -4.573091   -2.797400   -1.504508
H      -3.403764   -1.590379   -2.089853
H      -2.975111   -3.583836   -3.117734
