21

C      -0.256170    1.542488    0.010932
C       0.075696    0.064056    0.027421
O       1.079461   -0.352873   -0.952069
C       1.743350   -1.137315    0.045912
C       2.361217   -0.264607    1.089687
C       2.997893    1.056598    0.787605
C       3.285715    2.047677    1.890303
C       4.420929    1.314340    1.220506
C       0.869441   -0.591935    1.157287
H      -0.611865    1.836081   -0.982302
H      -1.059290    1.744736    0.728176
H       0.602847    2.161102    0.273473
H      -0.836525   -0.518854   -0.162561
H       2.051313   -2.140526   -0.227848
H       2.892048   -0.848212    1.841952
H       2.714098    1.467663   -0.174447
H       3.158765    3.105026    1.683396
H       3.027095    1.761137    2.904601
H       4.926586    0.538694    1.787342
H       5.070700    1.866423    0.550472
H       0.432215   -1.093556    2.010721
