16

C      -0.082113    1.519385    0.016347
C       0.029404   -0.013566   -0.005656
O       0.702630   -0.483393   -1.173614
C      -0.126977   -0.544610   -2.321228
C       0.614749   -1.134524   -3.427100
C       1.201429   -1.614783   -4.358003
C       0.764779   -0.505739    1.158489
C       1.353254   -0.880016    2.136106
H       0.915457    1.962748   -0.025513
H      -0.667084    1.880553   -0.834070
H      -0.576079    1.848622    0.934493
H      -0.985731   -0.445422    0.019980
H      -1.025153   -1.150587   -2.111846
H      -0.481197    0.455914   -2.616350
H       1.727440   -2.042345   -5.175482
H       1.877224   -1.224008    2.993459
