18

C       0.378015    1.522938   -0.182434
O       0.101384    0.126155   -0.100991
C       0.729528   -0.559812    0.877948
C       0.299347   -2.006022    0.792151
O       0.632649   -2.855172    1.577098
N       1.526898   -0.010578    1.691228
C       2.224812   -0.738100    2.745173
C       3.323570    0.173823    3.291819
O       2.798118    1.408198    3.733761
H       1.447944    1.697075   -0.329240
H      -0.192270    1.889685   -1.036107
H       0.065027    2.032799    0.733761
H      -0.365282   -2.216806   -0.070136
H       1.518860   -0.976168    3.551108
H       2.642777   -1.687988    2.394600
H       3.806823   -0.301106    4.151999
H       4.091676    0.319897    2.514062
H       2.230874    1.710852    3.013056
