17

C       0.044542    1.259120    0.243242
O      -0.071449   -0.068553   -0.252903
C      -1.322903   -0.583789   -0.153314
C      -2.666770   -0.261161   -0.903685
C      -3.450942   -0.724064    0.314919
C      -3.077936   -1.723573   -0.770592
C      -1.732373   -2.026083   -0.017116
O      -0.925764   -3.126721    0.025586
C      -2.136330   -1.026649    1.086366
H       1.090934    1.548651    0.128996
H      -0.586230    1.955579   -0.325267
H      -0.239287    1.310965    1.302381
H      -2.931923    0.444533   -1.680608
H      -4.430288   -0.415294    0.658566
H      -3.704731   -2.311892   -1.428936
H      -1.327045   -3.779367    0.611589
H      -1.864931   -1.013913    2.133375
