18

N       0.791897   -0.141274   -0.238698
C      -0.271450    0.484431    0.327902
O      -0.237927    1.590949    0.830243
C      -1.565792   -0.334476    0.339603
O      -1.436177   -1.508131   -0.465938
C      -2.305840   -2.523250    0.043665
C      -2.427926   -2.252112    1.530672
C      -1.138349   -1.983493    2.262891
C      -1.950748   -0.833143    1.726292
H       1.653105    0.369685   -0.340207
H       0.644812   -1.001096   -0.740078
H      -2.358899    0.322429   -0.046636
H      -3.293445   -2.464557   -0.438586
H      -1.855216   -3.489195   -0.207561
H      -3.286335   -2.644964    2.062186
H      -1.135012   -2.125551    3.337402
H      -0.201281   -2.227194    1.771921
H      -2.432063   -0.139188    2.402141
