22

C       0.428647    1.560168    0.019223
C      -0.183496    0.171621   -0.151824
N       0.522752   -0.557103   -1.203542
C       1.639924   -1.397837   -0.834083
C       0.358356   -2.014211   -1.339696
C      -0.489016   -2.833406   -0.384791
C       0.313139   -2.507797   -2.772604
C       0.826825   -1.591286   -3.865238
O      -0.133984   -3.607309   -3.020096
H       1.474339    1.489488    0.336067
H       0.398089    2.113614   -0.923275
H      -0.116929    2.129543    0.777851
H      -0.170112   -0.357168    0.814054
H      -1.232895    0.260239   -0.455596
H       2.527406   -1.338329   -1.459078
H       1.843979   -1.552170    0.225936
H      -0.318882   -2.556596    0.656902
H      -1.554537   -2.716981   -0.607725
H      -0.249530   -3.891074   -0.509476
H       0.275326   -0.647695   -3.852683
H       1.879171   -1.333228   -3.708020
H       0.714645   -2.092976   -4.826778
