20

C      -0.218681    1.491593    0.014125
C      -0.400134    0.116476   -0.625275
C       0.907703   -0.492131   -1.107706
O       1.938262    0.145466   -1.181748
C       0.906231   -1.934629   -1.480744
C      -0.277908   -2.692928   -1.967518
N       0.198317   -3.007675   -0.624332
C       1.422313   -3.872073   -0.816574
C       2.170869   -2.776072   -1.617307
H       0.412529    1.428467    0.904798
H       0.266653    2.181490   -0.679923
H      -1.185266    1.910525    0.307154
H      -0.873616   -0.595092    0.062452
H      -1.074013    0.182077   -1.491406
H      -1.239599   -2.190643   -1.975249
H      -0.135646   -3.414594   -2.770959
H       1.868494   -4.097948    0.152967
H       1.200910   -4.809405   -1.337049
H       2.487783   -3.012307   -2.636278
H       3.011728   -2.341179   -1.077422
