21

C      -0.215458    1.596862    0.004295
C      -0.019671    0.079953   -0.004332
C      -1.342038   -0.635377   -0.297279
C       1.135634   -0.505644   -0.894899
C       1.711855   -1.243089    0.321172
C       2.113807   -0.247406    1.377195
O       2.645361    1.019671    1.096982
C       0.662510   -0.565709    1.224796
O      -0.053067   -1.144046    2.264381
H       0.724532    2.117372    0.191000
H      -0.621987    1.938639   -0.954985
H      -0.932025    1.890279    0.781344
H      -1.732665   -0.324454   -1.272460
H      -1.217191   -1.722539   -0.306639
H      -2.092696   -0.398584    0.463179
H       0.770067   -1.170722   -1.679906
H       1.804236    0.237063   -1.338944
H       2.084985   -2.260462    0.329165
H       2.532444   -0.718667    2.268556
H       3.523670    0.895337    0.721210
H      -0.115119   -0.503806    2.981657
