20

C      -0.123456    1.698784   -0.363024
C      -0.045628    0.204661   -0.075661
C       0.970884   -0.587330   -0.946014
C       1.753599   -0.763278    0.366409
O       0.753465   -0.046896    1.119858
C      -1.424220   -0.409874    0.046765
C      -1.642776   -1.688396    0.810936
C      -2.148881   -0.379564    1.367648
H       0.877928    2.133111   -0.435169
H      -0.649493    1.883168   -1.306512
H      -0.665997    2.210566    0.437492
H       0.575080   -1.508114   -1.376736
H       1.471344   -0.006023   -1.722574
H       1.870707   -1.794798    0.719710
H       2.729148   -0.263562    0.411016
H      -2.033612   -0.268593   -0.842977
H      -2.361302   -2.402051    0.423186
H      -0.785924   -2.127462    1.309029
H      -1.609116    0.027153    2.215339
H      -3.216094   -0.188038    1.369464
