14

C      -0.046691    1.485934    0.038868
C      -0.004918   -0.014378   -0.013074
N      -0.110405   -0.612444   -1.198923
C      -0.070954   -1.949620   -1.223943
C       0.073519   -2.710270   -0.073305
O       0.112902   -4.063230   -0.103144
C       0.173280   -1.962795    1.102934
F       0.314412   -2.645400    2.245740
N       0.138403   -0.664122    1.159749
H       0.872621    1.878817    0.484847
H      -0.164992    1.891601   -0.965779
H      -0.875979    1.823789    0.668563
H      -0.156704   -2.441769   -2.189162
H       0.217632   -4.381923    0.801752
