17

C       0.017550    1.546328   -0.093011
C      -0.068125    0.063306    0.128757
O       1.122026   -0.719241   -0.139619
C       0.579034   -0.705665    1.203209
C       1.450889   -0.212376    2.317909
C      -0.314870   -1.933386    1.434009
O      -0.144762   -2.780041    2.277306
C      -1.429382   -1.833529    0.447781
C      -1.309574   -0.705227   -0.261217
H       0.965710    1.941595    0.276158
H      -0.053945    1.776755   -1.161664
H      -0.802072    2.062273    0.417852
H       2.068268    0.626700    1.991165
H       0.843885    0.101331    3.172995
H       2.105525   -1.020309    2.657852
H      -2.186576   -2.599950    0.345989
H      -1.975429   -0.370844   -1.049171
