14

O       0.075895    1.422395    0.163288
C       0.047321    0.012236    0.219554
C      -1.359691   -0.517664   -0.104237
N      -1.428083   -1.966487   -0.016790
C      -1.876809   -2.776255    0.959448
N      -1.678261   -4.027733    0.608208
N      -1.087687   -3.971562   -0.614762
N      -0.929780   -2.748923   -0.999800
H       0.115108    1.690351   -0.760202
H       0.776194   -0.454983   -0.455474
H       0.315702   -0.268746    1.243263
H      -2.087038   -0.094632    0.592386
H      -1.649633   -0.232133   -1.119132
H      -2.331903   -2.428992    1.872682
