17

C      -0.048366    1.453630    0.028797
N      -0.003609    0.007970   -0.006896
C       0.027463   -0.777470   -1.148594
C       0.039145   -2.090618   -0.771188
C       0.037003   -2.127589    0.663131
C       0.050713   -3.245598    1.522606
C       0.064566   -4.183009    2.283190
C       0.013499   -0.803992    1.093051
N      -0.082576   -0.277639    2.386311
H       0.954150    1.896631    0.079980
H      -0.544049    1.822827   -0.871512
H      -0.618221    1.772377    0.904878
H       0.039900   -0.316759   -2.122897
H       0.052704   -2.947708   -1.425195
H       0.073028   -5.017276    2.938819
H      -0.191446   -1.035577    3.051415
H       0.728780    0.269513    2.658281
