14

C       0.320181   -0.105331   -1.208670
C       0.123244    0.554082   -0.223784
C      -0.080723    1.377139    0.971676
N       1.039358    2.249490    1.320591
C       1.405123    3.260982    0.460091
N       2.617613    3.759412    0.429783
O       2.565235    4.790384   -0.483617
N       1.326294    4.913150   -1.023515
C       0.595376    3.990352   -0.465870
H       0.492459   -0.690674   -2.078405
H      -0.977974    1.995263    0.851440
H      -0.274561    0.736905    1.838182
H       1.838889    1.761536    1.701570
H      -0.442469    3.868747   -0.730904
