21

C       0.093267    1.120443   -1.088009
C      -0.048197    0.001720   -0.078050
C       1.140361   -0.751449    0.354466
O       0.595286    0.282476    1.184981
C      -1.421091   -0.623990    0.034108
C      -1.945579   -1.272601   -1.233598
C      -1.809726   -1.248888    1.368598
C      -2.398391    0.074189    0.957753
O      -2.070994    1.261287    1.615094
H       1.096156    1.551361   -1.039207
H      -0.080191    0.762758   -2.107130
H      -0.635858    1.906904   -0.870220
H       1.023132   -1.763151    0.738733
H       2.114499   -0.523174   -0.074973
H      -1.294506   -2.092288   -1.561162
H      -2.941665   -1.692813   -1.064480
H      -2.028549   -0.557772   -2.059003
H      -2.434488   -2.136083    1.354375
H      -1.072265   -1.222016    2.163807
H      -3.441136    0.100605    0.655603
H      -1.170351    1.174916    1.950672
