22

C      -0.103363    1.606140    0.202242
C       0.037181    0.077054    0.131080
C      -1.349196   -0.585592    0.112478
C      -1.289599   -2.119044    0.252562
C      -2.605683   -2.742542    0.199633
C      -3.703686   -3.230457    0.152504
N       0.823688   -0.473904   -0.984273
C       0.931131    0.226219   -2.257021
C       2.107800    0.096020   -1.349398
H       0.863340    2.116938    0.161828
H      -0.731813    1.994587   -0.605740
H      -0.577748    1.885203    1.147878
H       0.563129   -0.254190    1.037628
H      -1.959112   -0.170160    0.922027
H      -1.856672   -0.328683   -0.825230
H      -0.647247   -2.518468   -0.539118
H      -0.800840   -2.379160    1.201231
H      -4.666602   -3.675230    0.111560
H       0.843384   -0.395683   -3.143958
H       0.497813    1.218388   -2.358568
H       2.446624    1.002350   -0.851018
H       2.896894   -0.621363   -1.560657
