14

O      -0.015052   -0.032608   -0.020696
C      -0.035699    1.166392   -0.017393
C      -1.257529    2.103790    0.012682
N      -0.718050    3.462974   -0.137505
C       0.670264    3.366429   -0.039722
C       1.817181    4.101102    0.004201
N       2.911783    3.232686    0.032135
C       2.445876    2.018215   -0.000443
N       1.057697    2.035823   -0.040144
H      -1.941909    1.839047   -0.799347
H      -1.787069    1.954364    0.961336
H      -1.150490    4.172981    0.435411
H       1.947304    5.170206    0.021662
H       3.009100    1.099536   -0.005724
