25

C       0.099638    1.584245   -0.162379
C       0.007502    0.065960    0.010369
C      -1.417153   -0.477414   -0.172696
C      -1.487599   -1.994783   -0.053761
C      -1.438113   -2.735576    1.322749
C      -2.911370   -2.303803    1.565451
C      -2.853171   -2.762041    0.071732
C      -3.982482   -2.785803   -0.924995
C      -2.012174   -3.974471    0.581123
H       1.125399    1.941669   -0.027135
H      -0.230245    1.889537   -1.161890
H      -0.532729    2.105123    0.565417
H       0.677025   -0.426087   -0.707581
H       0.375205   -0.213628    1.006043
H      -2.081472    0.016328    0.545578
H      -1.782862   -0.187113   -1.168303
H      -0.818910   -2.443339   -0.801525
H      -0.623401   -2.729084    2.048321
H      -3.495108   -2.940128    2.237702
H      -3.110185   -1.250013    1.767881
H      -4.380144   -1.779474   -1.098190
H      -3.648850   -3.184282   -1.889839
H      -4.807759   -3.413685   -0.571017
H      -1.358553   -4.459680   -0.150486
H      -2.541079   -4.709299    1.195389
