23

C       0.583720    0.968166    0.660054
C      -0.855417    1.015114    1.138894
C      -1.112949    1.257061    2.610424
C      -1.439010    2.327727    1.599111
C      -1.748595    0.012113    0.460393
O      -3.155874    0.266855    0.423822
C      -2.444313    0.195635   -0.830505
C      -2.360869    1.487451   -1.613997
C      -2.783855   -1.028072   -1.656294
H       1.211148    1.652416    1.239246
H       1.005496   -0.038513    0.767788
H       0.664301    1.250686   -0.395827
H      -1.946483    0.736962    3.070464
H      -0.255588    1.399095    3.260013
H      -0.804530    3.207022    1.555052
H      -2.487463    2.506090    1.393638
H      -1.502564   -1.021618    0.724178
H      -2.069042    2.327320   -0.984504
H      -1.632624    1.391538   -2.426872
H      -3.332487    1.714445   -2.067081
H      -3.739214   -0.887655   -2.174190
H      -2.016168   -1.211255   -2.416038
H      -2.866972   -1.914526   -1.022733
