15

C      -0.044012    1.492480    0.092395
O       1.251276    1.925354   -0.333382
C       2.116180    0.822813   -0.621103
C       1.278049   -0.399931   -0.387827
N       1.630223   -1.669114   -0.536300
C       0.657839   -2.547455   -0.249011
C      -0.612132   -2.153760    0.170452
N      -0.959010   -0.866442    0.318907
C       0.007547   -0.006071    0.031812
H      -0.249187    1.857132    1.108912
H      -0.814038    1.908541   -0.571712
H       2.474031    0.889228   -1.657740
H       2.996251    0.851035    0.036965
H       0.900494   -3.600765   -0.356999
H      -1.373219   -2.895906    0.393994
