19

C      -0.089241    1.538219    0.367386
C      -0.054965    0.045544    0.014705
O       0.716985   -0.686680    0.969127
C      -1.422826   -0.535855   -0.144485
C      -2.091681   -1.134058   -1.163256
C      -3.385557   -1.484964   -0.652104
C      -3.414556   -1.082843    0.646329
C      -4.437556   -1.155797    1.721856
O      -2.221941   -0.496317    0.968795
H       0.930467    1.908600    0.501114
H      -0.578027    2.116588   -0.422907
H      -0.645272    1.699016    1.296684
H       0.467610   -0.089997   -0.937814
H       0.205777   -0.709526    1.785774
H      -1.710632   -1.307919   -2.157651
H      -4.186827   -1.976900   -1.181521
H      -4.079927   -1.734904    2.581173
H      -4.708866   -0.159545    2.089794
H      -5.341074   -1.636214    1.340162
