25

C       0.069504    1.570325   -0.345183
C       0.027089    0.074536   -0.116747
C       1.283915   -0.759836   -0.171539
C       0.552295   -0.586331    1.142060
C       1.165484    0.175639    2.285079
C       0.255274    0.650621    3.455485
C       1.395742    0.288790    4.447730
C       1.042519   -0.335730    5.788540
C       2.011735   -0.604499    3.334244
H       0.987724    2.018540    0.045040
H       0.026643    1.799222   -1.415996
H      -0.776494    2.074449    0.135741
H      -0.858372   -0.399491   -0.533871
H       1.258519   -1.725340   -0.665273
H       2.225574   -0.230286   -0.286730
H      -0.020150   -1.452494    1.470416
H       1.749968    1.021420    1.908764
H      -0.111111    1.680703    3.438465
H      -0.602903   -0.020303    3.580839
H       2.033611    1.166616    4.605776
H       0.404159   -1.216863    5.654806
H       1.940536   -0.655108    6.329814
H       0.502949    0.371333    6.429106
H       1.664735   -1.640544    3.424852
H       3.098691   -0.612773    3.217052
