21

C      -0.108287    1.361641   -0.038164
O       0.279178    0.017474    0.121031
C       0.611630   -0.595592   -1.085868
C       1.020991   -2.045979   -0.842152
O       1.028069   -2.517610    0.272124
C       1.412658   -2.854033   -2.049996
C       1.386984   -2.215744   -3.426630
C       2.480777   -3.906712   -1.766052
C       1.063658   -4.335707   -1.938569
H       0.697988    1.972590   -0.474941
H      -0.997873    1.459347   -0.680972
H      -0.346077    1.748582    0.955229
H      -0.233629   -0.581223   -1.798947
H       1.443183   -0.073557   -1.594905
H       2.068825   -1.361237   -3.499075
H       1.699087   -2.942100   -4.182603
H       0.384614   -1.871422   -3.704194
H       3.190307   -4.106019   -2.561773
H       2.884013   -3.915719   -0.760515
H       0.521686   -4.630865   -1.048102
H       0.774824   -4.837238   -2.855832
