18

C      -0.046596    1.500841    0.017077
C      -0.144379    0.004741   -0.020418
N      -0.242442   -0.756692    1.008547
O      -0.252176   -0.026477    2.193079
C      -0.113014   -0.700291   -1.314109
N       0.069785   -0.094517   -2.432997
C       0.032324   -1.139411   -3.469516
C       0.129520   -2.489657   -2.709076
N      -0.305323   -2.071676   -1.373665
H       0.064907    1.889469   -0.993724
H      -0.942706    1.924133    0.482434
H       0.803227    1.808500    0.634311
H      -0.334992   -0.714064    2.863003
H      -0.915565   -1.061170   -4.019296
H       0.838943   -0.996933   -4.193906
H      -0.521606   -3.264691   -3.122252
H       1.159851   -2.874814   -2.699322
H      -0.051301   -2.609836   -0.559219
