17

C      -0.083119    1.487585    0.067456
N      -0.108286    0.036147    0.199580
C      -1.402655   -0.591904   -0.073784
C      -1.829954   -0.626578   -1.549950
C      -1.360818   -1.967588    0.528986
N      -1.150575   -3.077689   -0.115960
O      -1.152906   -4.040696    0.834927
N      -1.382708   -3.440292    2.075798
N      -1.503435   -2.206695    1.888907
H       0.925132    1.846191    0.291939
H      -0.366747    1.873098   -0.925842
H      -0.762524    1.928839    0.804889
H       0.603363   -0.388308   -0.386923
H      -2.145579   -0.029240    0.504724
H      -2.825099   -1.066154   -1.665372
H      -1.857353    0.387125   -1.957246
H      -1.129309   -1.222027   -2.142486
