20

C       0.209836    1.513247   -0.631575
C      -0.048529    0.117936   -0.121099
N       1.101980   -0.761179    0.035491
C       0.371222   -0.356353    1.250325
C       1.074342    0.546044    2.223244
O       2.023385    1.237554    1.909821
C       0.513894    0.569270    3.607058
C       1.505426    0.753396    4.749921
C       0.608588    1.880198    4.374823
H       1.138177    1.905699   -0.215306
H       0.293369    1.499460   -1.723625
H      -0.615291    2.182350   -0.364811
H      -0.975897   -0.334194   -0.474410
H       0.864676   -1.722436   -0.195059
H      -0.288578   -1.088985    1.710564
H      -0.349825   -0.057955    3.796416
H       1.311066    0.205430    5.664654
H       2.545698    0.823350    4.453644
H       1.048808    2.705670    3.827484
H      -0.220957    2.132467    5.025232
