20

C      -0.261458    1.512535    0.009317
C       0.085626    0.018782    0.061040
C       0.762605   -0.489631   -1.190259
C      -0.019468   -0.930710   -2.410697
C       0.784888   -1.941029   -1.612836
C       2.194021   -2.268465   -2.068737
C       2.933165   -0.917951   -2.055807
O       4.034739   -0.682518   -2.497212
N       2.093467   -0.005250   -1.457722
H       0.637625    2.131993   -0.081308
H      -0.910880    1.737816   -0.842842
H      -0.779022    1.824850    0.921012
H       0.734997   -0.181559    0.922257
H      -0.830887   -0.562865    0.214399
H      -1.099653   -0.991445   -2.326771
H       0.343028   -0.628345   -3.388298
H       0.237457   -2.672196   -1.029509
H       2.698865   -2.959070   -1.385106
H       2.257863   -2.701726   -3.070889
H       2.310227    0.976833   -1.534365
