25

C      -0.036642    1.350257   -0.898717
C      -0.277243    0.554039    0.390739
C      -1.499694   -0.339511    0.304646
C      -1.500265   -1.765854   -0.254237
C      -2.671479   -2.160901   -1.138877
C      -0.201515   -2.426310   -0.685896
C      -1.770543   -1.521557    1.217069
C      -0.804548   -1.939149    2.306527
O      -3.113487   -1.727804    1.601766
H       0.830176    2.011820   -0.801550
H       0.142183    0.682626   -1.747820
H      -0.904867    1.971235   -1.145438
H       0.618240   -0.030834    0.624353
H      -0.401543    1.253968    1.228475
H      -2.408033    0.208776    0.056783
H      -2.500589   -1.826178   -2.168989
H      -2.794559   -3.250380   -1.161884
H      -3.607691   -1.731053   -0.782133
H       0.666978   -2.107614   -0.106624
H      -0.276427   -3.516234   -0.593721
H       0.007476   -2.202822   -1.738622
H       0.241167   -1.797161    2.029456
H      -0.983552   -1.351003    3.215762
H      -0.954748   -2.993632    2.559561
H      -3.321395   -1.083520    2.287397
