14

O      -0.028108    1.419354   -0.025145
C       0.002430    0.004877   -0.058687
C      -1.401874   -0.512144    0.020445
C      -2.475193    0.296050    0.104910
O      -3.741332   -0.133899    0.176982
N      -3.976018   -1.598700    0.164412
N      -3.013342   -2.338577    0.088389
C      -1.630585   -1.933166    0.006638
N      -0.710684   -2.813171   -0.070796
H       0.875502    1.741104   -0.078286
H       0.468436   -0.379080   -0.979851
H       0.581884   -0.418550    0.776789
H      -2.401999    1.377346    0.121998
H      -1.120578   -3.748904   -0.062755
