21

C      -0.086605    1.529665   -0.102492
C       0.033986    0.024210    0.016211
C       1.357146   -0.681029   -0.179655
C       0.705802   -0.661600    1.180669
C       1.354876    0.111231    2.313722
O       2.246216   -0.734506    3.036161
C       1.588074   -1.880594    3.505618
O       1.064875   -2.673863    2.473585
C       0.103355   -1.946430    1.716699
H       0.812958    2.042511    0.250049
H      -0.236632    1.820347   -1.147865
H      -0.936596    1.912939    0.473014
H      -0.832059   -0.508588   -0.373755
H       1.378360   -1.615712   -0.730437
H       2.239122   -0.063656   -0.322238
H       1.951686    0.953476    1.958239
H       0.582393    0.501972    2.999637
H       2.330444   -2.484502    4.030927
H       0.773782   -1.585580    4.197968
H      -0.769901   -1.717090    2.353355
H      -0.227414   -2.605768    0.909371
