17

O      -0.090118    1.435371    0.085832
C       0.000897    0.049229    0.077483
C       0.491059   -0.805073    1.265997
C      -0.319077   -1.924512    0.561044
C       0.399678   -2.188838   -0.781512
O      -0.653289   -2.487636   -1.733407
C      -1.003245   -1.098524   -1.592607
C      -1.274278   -0.834873   -0.071059
C       0.448957   -0.686383   -1.230039
H       0.791868    1.801108   -0.044694
H       1.566895   -0.958957    1.409555
H       0.031681   -0.483547    2.204777
H      -0.704139   -2.788472    1.098288
H       1.240173   -2.881015   -0.819604
H      -1.643725   -0.699341   -2.376696
H      -2.236755   -0.613512    0.382213
H       1.202637   -0.327859   -1.928877
