18

N       0.096561    1.352507    0.245464
C       0.007841   -0.002958    0.053105
C      -1.179846   -0.662687   -0.017287
C      -1.293323   -2.108114   -0.071245
O      -2.359171   -2.680958   -0.238604
C      -0.020303   -2.935578    0.162108
C       1.293933   -2.219663   -0.066096
C       1.585249   -1.487755   -1.341423
C       1.306443   -0.705307   -0.062049
H       0.927471    1.820223   -0.080480
H      -0.750937    1.892002    0.158277
H      -2.116083   -0.112298   -0.031604
H      -0.071734   -3.274238    1.205208
H      -0.095628   -3.837466   -0.453365
H       2.153057   -2.684218    0.408285
H       2.603071   -1.489774   -1.716086
H       0.815382   -1.454968   -2.104804
H       2.146702   -0.201464    0.405460
