20

C       0.088793    1.525293   -0.020570
C       0.191150    0.011646    0.045760
O       0.442612   -0.475929   -1.268513
C       0.579217   -1.844564   -1.338996
C       1.842770   -2.546378   -0.918688
C       1.377003   -2.638697   -2.357801
C       0.242932   -3.666693   -2.461015
C      -0.594107   -2.831459   -1.432709
H       1.018500    1.955988   -0.403403
H      -0.726164    1.826982   -0.684667
H      -0.102506    1.938512    0.974357
H       1.004531   -0.298826    0.719015
H      -0.741490   -0.422296    0.438128
H       2.684499   -1.879071   -0.762553
H       1.828668   -3.423063   -0.273389
H       1.993579   -2.284598   -3.174556
H      -0.225436   -3.702829   -3.446701
H       0.502549   -4.686255   -2.158015
H      -0.899632   -3.330889   -0.507518
H      -1.470588   -2.374682   -1.898280
