19

O      -0.483430    1.383259   -0.028450
C      -0.234286   -0.000579   -0.026951
C       0.317752   -0.666379    1.266877
C      -0.713655   -1.810120    1.049484
C      -1.405780   -2.366305    2.276543
O      -2.362107   -3.369747    1.902863
C      -3.669801   -3.104625    2.073472
O      -4.532000   -3.869975    1.762988
C      -1.505685   -0.862398    0.104372
H       0.349693    1.845289   -0.165647
H       0.358033   -0.302513   -0.902347
H       1.377598   -0.927339    1.314111
H       0.056110   -0.051762    2.134724
H      -0.270063   -2.637503    0.487806
H      -0.688449   -2.852240    2.946460
H      -1.905232   -1.564466    2.837402
H      -3.849274   -2.112891    2.534395
H      -2.269089   -0.298950    0.651228
H      -1.946825   -1.276807   -0.803351
