17

O       0.057038    1.423596   -0.107212
C       0.098621    0.028101    0.002974
C       0.322181   -0.624536    1.424199
C      -1.047787   -1.286618    1.273192
O      -2.000657   -0.223170    1.077118
C      -1.259003   -0.698062   -0.062745
C      -2.021672   -1.121777   -1.256943
C      -1.964604   -0.323517   -2.491280
O      -1.226395   -1.542045   -2.368041
H      -0.662351    1.715858    0.467663
H       0.807908   -0.340507   -0.740021
H       1.157622   -1.328048    1.437917
H       0.411829    0.075760    2.258067
H      -1.425821   -2.210776    1.694129
H      -2.905484   -1.727548   -1.058198
H      -2.802222   -0.353438   -3.185754
H      -1.366991    0.585933   -2.502304
