18

C       0.171884    1.424690   -0.407310
C      -0.005362   -0.010407    0.082336
C      -1.460205   -0.448700    0.109702
O      -2.387848    0.246097   -0.229460
N      -1.657803   -1.730376    0.658117
C      -1.238402   -2.968602    0.052027
C      -2.704881   -2.609237    0.178327
C      -3.524994   -3.285374    1.227443
O      -4.630179   -3.721566    1.040999
H       1.230396    1.698662   -0.413831
H      -0.224346    1.545209   -1.418502
H      -0.364165    2.125213    0.237541
H       0.552490   -0.714070   -0.549911
H       0.402191   -0.144876    1.091634
H      -0.828572   -2.946059   -0.955301
H      -0.796727   -3.707898    0.715883
H      -3.233341   -2.323992   -0.727078
H      -3.010061   -3.362831    2.211849
