17

C      -0.060331    1.488949   -0.036475
C       0.007964   -0.011837    0.018914
N       0.404107   -0.644926   -1.094983
C       0.460273   -1.973795   -1.044507
C       0.129365   -2.702915    0.098428
C       0.157386   -4.207888    0.133723
O       1.158760   -4.669648   -0.758412
C      -0.248029   -1.938931    1.196686
N      -0.318478   -0.607447    1.172489
H       0.942560    1.907740   -0.172894
H      -0.657355    1.810387   -0.894888
H      -0.490409    1.884163    0.884001
H       0.791857   -2.489053   -1.941452
H       0.345561   -4.545398    1.165537
H      -0.832523   -4.600057   -0.152982
H       1.062515   -5.621761   -0.851620
H      -0.503843   -2.417199    2.142182
