18

O      -0.046857    1.412701    0.168777
C       0.014346    0.023584    0.033428
C      -1.334332   -0.711191    0.069852
N      -2.093292   -0.093813   -1.049413
C      -1.149443   -1.210617   -1.318384
C       0.245202   -0.590132   -1.419365
C       0.532062    0.362987   -2.584248
C       1.885822    0.903170   -2.552192
C       3.013528    1.317482   -2.518518
H      -0.850495    1.682722   -0.296928
H       0.746583   -0.346293    0.753021
H      -1.851462   -1.149823    0.914279
H      -3.036143   -0.477964   -1.033461
H      -1.504016   -2.129776   -1.768878
H       1.015876   -1.363985   -1.368402
H       0.376768   -0.174084   -3.529729
H      -0.198558    1.178210   -2.572588
H       4.002068    1.703029   -2.487542
