19

C      -0.051421    1.531846    0.000263
O      -0.467925    1.832838    1.374365
C       0.366038    0.917100    2.045307
C       1.686466    1.039767    2.867442
C       1.644968   -0.413665    2.270044
C       0.142623   -0.467225    2.729568
C       1.139771    0.226378    0.931024
C      -0.023516   -0.028136   -0.077143
C       1.508255    1.467067    0.059630
H      -0.603113    2.160780   -0.696643
H       2.461128    1.706737    2.490916
H       1.594709    1.105368    3.954036
H       2.390338   -1.191527    2.425971
H      -0.019838   -0.470639    3.809847
H      -0.502628   -1.186273    2.226235
H      -0.919981   -0.555525    0.249143
H       0.299417   -0.385791   -1.057185
H       1.947155    1.222609   -0.910057
H       2.021553    2.315787    0.511794
