18

C       0.190877    1.279993    0.206664
O      -0.199172   -0.047354   -0.107767
C       0.450390   -0.571121   -1.201983
C       1.889921   -1.071993   -1.113605
C       0.793796   -2.024629   -1.517957
O       0.517319   -3.236822   -0.916409
C       0.422166   -1.813508   -2.979854
C       0.073728   -0.315717   -2.664402
H       1.267543    1.340679    0.418830
H      -0.044151    1.976316   -0.610271
H      -0.369752    1.575854    1.096218
H       2.672266   -0.751609   -1.801774
H       2.220004   -1.195744   -0.084141
H       0.820353   -3.207388   -0.003244
H       1.217942   -1.993892   -3.709239
H      -0.461644   -2.390041   -3.260240
H      -0.991392   -0.107235   -2.787764
H       0.655077    0.442942   -3.198957
