23

C      -0.010029    1.554888   -0.238625
C       0.033141    0.050683   -0.073060
C       1.333400   -0.710200   -0.169656
C       0.604543   -0.631309    1.154073
C       1.188260    0.130515    2.316304
C       0.247586    0.614046    3.481342
C       1.147817   -0.111341    4.488668
C       1.188381   -1.577779    4.168859
C       2.031355   -0.634546    3.354039
H       0.888467    2.037579    0.156454
H      -0.084057    1.825572   -1.297915
H      -0.874023    1.990541    0.276016
H      -0.828518   -0.453714   -0.504269
H       1.357254   -1.654701   -0.702533
H       2.243557   -0.125099   -0.269161
H       0.082591   -1.539216    1.446972
H       1.762614    0.985235    1.948424
H       0.241884    1.701051    3.588337
H      -0.789987    0.264296    3.440791
H       1.442872    0.272236    5.457689
H       1.743182   -2.195152    4.868422
H       0.318354   -2.072224    3.742218
H       3.110051   -0.736026    3.320539
