17

C      -0.457698    1.545046   -0.010432
C       0.060332    0.115999   -0.062408
N       1.171870    0.048149   -1.086395
C       1.952555   -0.783379   -0.526563
C       1.509949   -1.691348    0.647688
C       2.876238   -1.332507    1.273205
C       2.348501    0.051751    1.424470
C       0.844047   -0.400906    1.207472
N       3.180667   -0.392886    0.169002
H       0.367353    2.247307    0.138883
H      -0.959194    1.807046   -0.945541
H      -1.172881    1.658248    0.812512
H      -0.776619   -0.574713   -0.251992
H       1.005829   -2.648547    0.562308
H       3.628229   -1.889367    1.813870
H       2.737135    0.907467    1.960495
H       0.296318   -0.455327    2.152956
