16

C      -0.820349    1.320413    0.210553
C       0.011769    0.077387   -0.015367
N       0.408602   -0.562724    1.120854
N       0.407628   -0.425469   -1.135859
C       0.197753    0.114902   -2.360154
N       0.455031   -0.470646   -3.498414
C       0.104987    0.455228   -4.464001
C      -0.349755    1.582967   -3.872735
O      -0.301493    1.392155   -2.517845
H      -0.247638    2.210360   -0.061779
H      -1.704734    1.306569   -0.428463
H      -1.130713    1.409796    1.254521
H      -0.052629   -0.383068    1.994629
H       0.871195   -1.450740    1.004657
H       0.209826    0.243271   -5.516655
H      -0.712116    2.537446   -4.213822
