19

C      -0.264769    1.437725    0.100008
C       0.031425   -0.051114   -0.047329
C       1.290522   -0.406198   -0.904685
C       2.078810   -0.766596    0.391633
C       0.754974   -0.676815    1.156515
N       0.519151   -0.321277    2.541899
C       0.226255   -1.706738    2.103045
C      -1.162031   -2.096397    2.081413
N      -2.269271   -2.425214    2.024014
H       0.636327    1.999542    0.370616
H      -0.647564    1.848576   -0.839711
H      -1.009557    1.609507    0.881952
H      -0.877718   -0.585506   -0.337928
H       1.135297   -1.266584   -1.558452
H       1.701487    0.414396   -1.496309
H       2.596618   -1.728707    0.410183
H       2.785217    0.013679    0.692348
H       1.385617   -0.312932    3.076520
H       0.905053   -2.500757    2.403742
