14

C      -0.070297    1.475569    0.023712
C      -0.000187    0.024273   -0.004153
C       0.068371   -1.180372   -0.029340
C       0.116059   -2.584532   -0.052302
C       1.138206   -3.439000   -0.263627
O       0.702099   -4.734914   -0.189413
C      -0.662863   -4.731488    0.081857
O      -1.331394   -5.718175    0.205221
N      -1.006218   -3.403955    0.162844
H       0.587378    1.890798    0.795355
H       0.227227    1.906888   -0.938496
H      -1.090014    1.812474    0.238686
H       2.180899   -3.275687   -0.469259
H      -1.942062   -3.091412    0.351792
