19

C      -0.030785    1.593111   -0.054090
C      -0.053490    0.052926   -0.016480
C      -1.496398   -0.486897    0.010119
C       0.714375   -0.523584   -1.164392
C       1.825947   -1.310186   -1.260122
C       2.714224   -1.904511   -0.220197
N       2.045881   -1.506642   -2.609334
N       1.180260   -0.917667   -3.302291
O       0.283861   -0.258121   -2.403750
H       0.993375    1.976638   -0.037405
H      -0.516825    1.964038   -0.961017
H      -0.563351    1.998820    0.811161
H       0.455451   -0.277506    0.896340
H      -2.035554   -0.191379   -0.894493
H      -1.511829   -1.578759    0.072368
H      -2.032499   -0.086171    0.875511
H       2.728914   -2.996770   -0.291463
H       3.745330   -1.555656   -0.336104
H       2.376429   -1.635190    0.783339
