13

N       0.073390    1.415432    0.118391
C       0.035285    0.040863   -0.039823
N      -1.150603   -0.491796   -0.131086
O      -1.191460   -1.876283   -0.409235
C      -0.099620   -2.647591   -0.510075
O      -0.180267   -3.840435   -0.726051
C       1.213769   -1.998173   -0.359014
O       2.251382   -2.822126   -0.475017
C       1.282228   -0.671101   -0.139945
H       0.810324    1.760537    0.715864
H      -0.829437    1.818309    0.331335
H       1.856042   -3.700559   -0.642523
H       2.226611   -0.146943   -0.055848
