23

C      -0.138515    1.558788   -0.053807
C       0.056522    0.045790   -0.000509
C       1.074947   -0.578159   -0.986659
C       2.427376   -0.018240   -0.482859
C       2.233340   -0.006244    1.065508
C       0.791544   -0.545361    1.227289
C       0.165670   -0.396473    2.595785
O       0.837013   -1.952780    0.896489
C       0.990050   -2.041434   -0.531326
H       0.799167    2.112118    0.046753
H      -0.594549    1.854820   -1.004522
H      -0.807002    1.893608    0.746451
H      -0.920310   -0.442970   -0.096342
H       0.883246   -0.431991   -2.051448
H       3.264687   -0.647202   -0.798329
H       2.614130    0.984890   -0.875302
H       2.932458   -0.664561    1.586595
H       2.343301    0.997649    1.487504
H       0.091607    0.658449    2.877005
H      -0.836417   -0.835015    2.610253
H       0.769598   -0.908383    3.351286
H       0.124025   -2.563603   -0.961304
H       1.892852   -2.616929   -0.773331
