15

C      -0.011369    1.373338    0.008058
O      -0.001017   -0.059545    0.007507
C       0.596782   -0.623511   -1.036028
N       1.159808   -0.004940   -2.033024
O       1.637656   -1.001575   -2.860298
N       1.357146   -2.254354   -2.352499
C       0.721173   -2.040952   -1.237317
O       0.253942   -2.964762   -0.405058
C       0.488253   -4.321869   -0.800813
H       1.010741    1.763933    0.008432
H      -0.537321    1.753098   -0.873090
H      -0.532336    1.665388    0.919373
H       0.013656   -4.527224   -1.765101
H       1.561726   -4.517000   -0.883586
H       0.046958   -4.938853   -0.018648
