15

N      -0.061818    1.527828    0.032460
C      -0.012994    0.062356    0.015936
C       0.651888   -0.514004   -1.167228
C       1.182423   -0.946653   -2.155812
C       0.648243   -0.461436    1.272138
N       1.383366    0.327534    2.015392
O       1.856550   -0.462608    3.056049
C       1.383841   -1.708105    2.900882
C       0.610456   -1.788269    1.791172
H       0.862570    1.888187    0.251520
H      -0.299328    1.858698   -0.897388
H      -1.049865   -0.302842    0.021619
H       1.656172   -1.329895   -3.025774
H       1.679850   -2.420012    3.655657
H       0.095440   -2.646635    1.393974
