17

C      -0.220694    1.584231    0.156386
C      -0.114121    0.078189   -0.030107
O      -1.337269   -0.579001    0.227063
C       0.530031   -0.496027   -1.316229
C       1.085533    0.403572   -2.400157
O       1.844000   -0.338493   -3.333649
O       1.635529   -1.062215   -0.510755
C       1.094170   -0.599380    0.659077
O       1.493816   -0.754181    1.767979
H       0.716088    2.098387   -0.074148
H      -1.015125    1.986301   -0.478571
H      -0.466827    1.804179    1.200675
H      -1.572530   -0.419695    1.148809
H      -0.057612   -1.311521   -1.742390
H       0.258561    0.859457   -2.955317
H       1.679111    1.214132   -1.951915
H       2.554757   -0.768589   -2.844073
