21

O      -0.109804    1.438783   -0.500252
C      -0.113140    0.111207   -0.014282
C      -1.525610   -0.438099    0.099414
O      -2.072890   -0.451685   -1.211416
C      -3.459779   -0.744071   -1.274473
C      -4.348901    0.522827   -1.149376
C      -4.273071    0.688033   -2.694301
C      -3.840938   -0.806539   -2.780537
O      -2.854418   -1.215403   -3.679863
H      -0.648214    1.429791   -1.299689
H       0.481797   -0.557361   -0.657099
H       0.354672    0.128300    0.975352
H      -1.522105   -1.454685    0.523070
H      -2.122735    0.210864    0.755702
H      -3.688087   -1.610543   -0.640620
H      -5.354980    0.277769   -0.798702
H      -3.949186    1.333156   -0.536245
H      -5.178512    0.985546   -3.226752
H      -3.452802    1.345896   -2.992806
H      -4.713469   -1.450833   -2.928411
H      -2.012127   -0.954043   -3.286160
