18

C       0.030335    1.464153    0.079170
C      -0.034145   -0.042300   -0.007140
C       0.214818   -0.687116   -1.414297
C      -1.119616   -1.417510   -1.279312
C      -1.167710   -2.169651    0.035534
N      -0.021139   -2.721360    0.701356
C       0.831941   -1.900518    1.154904
O       0.865994   -0.555541    1.000687
C      -1.424809   -0.691674    0.035888
H       1.051636    1.815801   -0.095555
H      -0.629083    1.911984   -0.669328
H      -0.287138    1.804070    1.069780
H       0.214495    0.064664   -2.207200
H       1.113087   -1.304285   -1.504143
H      -1.801696   -1.656094   -2.085930
H      -2.046869   -2.797310    0.139073
H       1.672557   -2.239722    1.757047
H      -2.329607   -0.225692    0.404694
