15

N      -0.023679    1.475124   -0.045976
C       1.296186    0.793866    0.030188
C       0.047539   -0.008021    0.038690
C       0.089133   -0.671758   -1.322969
C       0.688129    0.342410   -2.340858
O       1.376466   -0.737172   -3.070905
C       1.581047   -1.040742   -1.657387
C       1.869315    0.471481   -1.335089
H      -0.252247    1.840821    0.877286
H       1.923159    0.925210    0.904239
H      -0.324264   -0.518094    0.919541
H      -0.702289   -1.339626   -1.657760
H       0.187957    1.115110   -2.919904
H       2.156103   -1.933521   -1.406222
H       2.802601    0.911224   -1.681623
