18

N      -0.011588    1.452821    0.036354
C       0.124832    0.004297   -0.048782
C       0.923387   -0.514215    1.167952
N       0.264048   -0.098936    2.425853
C       0.228969   -1.233028    3.366384
C       0.529973   -2.414697    2.487652
C       0.919806   -2.029034    1.279114
C       2.321715   -0.023414    1.092601
N       3.421094    0.334195    1.065889
H      -0.385291    1.825965   -0.829022
H      -0.675693    1.676833    0.770892
H      -0.828185   -0.548538   -0.054176
H       0.666027   -0.247899   -0.967331
H       0.700130    0.723331    2.820630
H       0.970355   -1.150015    4.177694
H      -0.756842   -1.309448    3.845209
H       0.442276   -3.437773    2.831561
H       1.220849   -2.659724    0.453043
