16

C      -0.041267    1.437605    0.018336
N      -0.057991   -0.011749    0.029476
C       0.550422   -0.611903   -0.924842
N       1.247886   -0.038460   -1.963723
C       0.568938   -2.084110   -0.936627
C       0.074687   -2.952947   -0.019134
O       0.318505   -4.219283   -0.464401
C       0.956996   -4.048398   -1.643592
N       1.136703   -2.814583   -1.979886
H       0.981399    1.848211    0.020962
H      -0.558645    1.860355   -0.860296
H      -0.555009    1.815721    0.905793
H       1.047969    0.917736   -2.202862
H       1.501070   -0.651063   -2.723896
H      -0.434963   -2.844898    0.920552
H       1.246747   -4.940613   -2.175548
