15

N      -0.231852    1.214446   -0.562643
C      -0.080048    0.062577   -0.099985
O       1.004890   -0.556338    0.481550
C       0.246456   -1.791384    0.731179
C       0.056647   -2.076677    2.211785
N      -1.035025   -1.360479    2.862185
C      -1.994123   -0.939883    2.160740
O      -2.155496   -0.986174    0.806588
C      -0.983351   -1.160479    0.035409
H       0.616190    1.776142   -0.466993
H       0.719343   -2.622038    0.201794
H      -0.128661   -3.151951    2.339209
H       0.989636   -1.858361    2.741605
H      -2.868189   -0.482016    2.618218
H      -1.288341   -1.607937   -0.910366
