23

C      -0.154254    1.578369   -0.040303
C       0.071984    0.063365    0.001117
C       0.883547   -0.488051   -1.155660
C       1.668293   -1.494157   -0.772466
C       1.530405   -1.759838    0.685853
C       1.193900   -3.163814    1.160725
C       2.542896   -2.565583    1.460950
C       0.828114   -0.506766    1.250236
C       1.842728    0.479302    1.846227
H       0.787217    2.134342   -0.068063
H      -0.723186    1.849775   -0.936175
H      -0.726220    1.922623    0.828001
H      -0.922823   -0.408957   -0.032574
H       0.775655   -0.121355   -2.170957
H       2.306219   -2.089635   -1.417381
H       0.488060   -3.264013    1.979202
H       1.130501   -3.952720    0.418408
H       3.407967   -2.947100    0.927521
H       2.751115   -2.276114    2.485688
H       0.111124   -0.780354    2.032251
H       2.587429    0.780145    1.102039
H       1.354030    1.382563    2.222790
H       2.378663    0.022634    2.683354
