25

C      -0.627011    1.021838   -0.427876
C       0.340367   -0.148672   -0.332277
C       1.851946    0.109566   -0.584737
C       2.176256   -0.909183    0.536421
C       0.719033   -0.754307    1.053803
C       0.559963    0.057943    2.369636
C       0.301404   -1.276781    3.118425
C       0.022142   -1.961232    1.747448
C      -1.461730   -2.132607    1.429587
H      -0.315073    1.849995    0.217982
H      -0.672344    1.404392   -1.453980
H      -1.644052    0.735999   -0.137679
H      -0.000672   -0.960611   -0.987476
H       2.243337   -0.088879   -1.585816
H       2.132310    1.128926   -0.299895
H       2.354904   -1.912823    0.135768
H       2.985887   -0.663882    1.230048
H       1.413484    0.662551    2.689473
H      -0.327212    0.697740    2.359726
H       1.202809   -1.664183    3.600463
H      -0.512838   -1.288412    3.848626
H       0.537110   -2.916542    1.593360
H      -2.022436   -1.208019    1.607421
H      -1.619647   -2.421430    0.384786
H      -1.905135   -2.911509    2.059842
