18

C       0.019532    1.548544    0.008673
C       0.054497    0.049459    0.064287
C       1.256099   -0.801028   -0.318231
C       0.650812   -0.941817    1.045984
C       1.336278   -0.867183    2.372085
O       1.968436   -2.093316    2.710329
O      -0.492857   -1.812845    0.972722
C      -1.166815   -0.868348    0.097695
H       0.993327    1.977263    0.265320
H      -0.235617    1.900847   -0.998145
H      -0.721679    1.959674    0.703240
H       1.163845   -1.616077   -1.031482
H       2.195405   -0.257169   -0.359210
H       2.123317   -0.106964    2.341728
H       0.609007   -0.571665    3.144177
H       1.288007   -2.775017    2.677403
H      -2.031166   -0.423582    0.606201
H      -1.489705   -1.328601   -0.844164
