18

O      -0.001985   -0.053808    0.364309
C       0.034418    1.126208    0.107370
C       1.297212    1.920823    0.036489
C       2.614703    1.203916    0.302899
C       3.564805    2.413058    0.114921
N       2.657957    3.541751   -0.208245
C       1.562020    2.977500   -1.108876
C       0.587834    3.984799   -0.476366
C       1.416076    3.367466    0.662347
H      -0.905775    1.685332   -0.093380
H       2.648337    0.770896    1.306031
H       2.789679    0.393142   -0.409099
H       4.133770    2.659506    1.015747
H       4.275504    2.280515   -0.705624
H       1.745865    2.758659   -2.163078
H       0.802564    5.032157   -0.689298
H      -0.478307    3.763495   -0.515492
H       1.425395    3.614922    1.726166
