20

C      -0.064513    1.520087   -0.029244
C       0.041226    0.021667    0.002374
C      -0.823794   -0.864149    0.864588
O      -1.516149   -1.981015    0.383033
C       0.653997   -0.942518    1.056795
C       1.294045   -1.786018   -0.058576
C       0.669146   -0.834101   -1.090195
C       0.174635   -1.069759   -2.462492
N       1.432207   -0.321441   -2.223562
H       0.898874    1.988412   -0.262874
H      -0.791390    1.860731   -0.778281
H      -0.391517    1.910262    0.939643
H      -1.347403   -0.321744    1.654650
H      -2.194623   -1.673918   -0.226832
H       1.119923   -0.707027    2.006541
H       2.383549   -1.715105   -0.073457
H       0.986143   -2.833210   -0.098803
H       0.306568   -2.040305   -2.933137
H      -0.701012   -0.519081   -2.800768
H       1.267501    0.676510   -2.339698
