16

C       0.067569    1.421056    0.070697
N      -0.088449   -0.018702    0.009864
C      -1.300325   -0.622502   -0.163298
O      -2.346496   -0.000230   -0.244905
C      -1.244507   -2.142542   -0.268424
C      -2.533655   -2.789604    0.221321
O      -2.415335   -4.187139   -0.004337
H       0.520403    1.733540    1.018235
H       0.687599    1.793470   -0.752831
H      -0.928983    1.856718   -0.008956
H       0.731926   -0.598324    0.068808
H      -1.098719   -2.411837   -1.322166
H      -0.389215   -2.550270    0.281830
H      -2.680034   -2.566045    1.289464
H      -3.379633   -2.351235   -0.322137
H      -3.246783   -4.599185    0.247038
