19

O       0.742649    0.199917   -1.007257
C      -0.141504    0.587797    0.045144
C      -1.449826   -0.197735    0.087291
C      -2.402029    0.300472    1.165931
C      -1.846750    0.114919    2.566179
O      -1.794220    0.978073    3.403707
C      -2.044762   -0.712144   -1.218327
C      -1.423060   -1.676730   -0.235681
O      -0.244070   -2.361080   -0.506236
H       0.420571    0.582632   -1.829256
H       0.421948    0.421497    0.970399
H      -0.356309    1.664545   -0.011558
H      -2.660868    1.356951    1.031377
H      -3.334490   -0.278278    1.112543
H      -1.478632   -0.915494    2.777487
H      -3.122608   -0.688204   -1.342899
H      -1.490324   -0.536155   -2.134907
H      -2.103134   -2.318103    0.317944
H       0.387401   -1.716985   -0.860146
