14

N       0.012124    1.414912    0.162884
C      -0.033040    0.035037    0.064040
C      -1.167314   -0.704339    0.040825
F      -2.390762   -0.167166    0.046004
N      -1.167449   -2.073017   -0.000739
C       0.009112   -2.762797   -0.018609
C       1.197129   -2.105337   -0.007426
C       1.269406   -0.657132    0.020657
O       2.311200    0.002830    0.000478
H       0.945328    1.738067   -0.071429
H      -0.729548    1.921261   -0.296806
H      -2.057040   -2.544292   -0.011535
H      -0.081555   -3.840747   -0.045404
H       2.126855   -2.658711   -0.033728
