23

C       0.015656    1.589183    0.057233
C      -0.004980    0.056098    0.054122
C      -1.411604   -0.555164   -0.033372
O      -2.191408   -0.136039    1.089397
C      -2.158309   -0.321822   -1.399427
C      -2.445025   -1.786849   -1.786543
C      -2.896544   -2.405659   -0.432277
C      -1.422815   -2.099637   -0.034576
C      -1.068371   -2.454899   -1.509244
H       1.042752    1.963985    0.093200
H      -0.455522    2.005102   -0.840193
H      -0.502378    1.996730    0.932463
H       0.603628   -0.310053   -0.779441
H       0.464132   -0.312271    0.974545
H      -2.320776    0.815057    1.024163
H      -3.071258    0.262789   -1.251540
H      -1.538516    0.188210   -2.143920
H      -2.993744   -1.959019   -2.713417
H      -3.684778   -1.908510    0.134168
H      -3.090137   -3.478040   -0.509609
H      -0.937250   -2.579835    0.815665
H      -1.080807   -3.533555   -1.682381
H      -0.175125   -2.018451   -1.965082
