19

C       0.009003    1.568867    0.023465
C       0.057942    0.039170    0.001661
C       0.760790   -0.508099   -1.245480
C       0.810833   -2.019758   -1.287315
O       1.420765   -2.463533   -2.481914
C       2.116842   -3.653106   -2.172775
C       2.373547   -3.562883   -0.672587
O       3.085714   -4.230312    0.014595
O       1.611344   -2.537370   -0.211326
H       1.017270    1.996720    0.009340
H      -0.529647    1.962611   -0.845596
H      -0.495355    1.934780    0.922635
H       0.575384   -0.329588    0.894156
H      -0.962881   -0.362198    0.049353
H       0.243722   -0.177720   -2.154516
H       1.790459   -0.137660   -1.307480
H      -0.194343   -2.461396   -1.180780
H       1.527996   -4.557189   -2.392359
H       3.052419   -3.697395   -2.734435
