23

C      -0.121448    1.324683   -0.066847
O       0.126791   -0.062862   -0.058129
C       0.718487   -0.578593    1.124395
C       2.109496   -0.000132    1.375030
C      -0.193826   -0.592448    2.409890
C      -0.132571   -2.127259    2.404611
C       0.003257   -2.977445    3.634708
C      -0.700486   -2.627686    1.106201
C       0.710665   -2.106810    1.122314
H       0.800572    1.920877   -0.122439
H      -0.719805    1.534117   -0.957560
H      -0.688083    1.650048    0.818490
H       2.071590    1.067394    1.612989
H       2.586140   -0.511056    2.216549
H       2.738448   -0.135894    0.488873
H       0.294723   -0.135916    3.275310
H      -1.192252   -0.158112    2.295349
H      -0.923303   -2.977411    4.222203
H       0.227075   -4.017408    3.374431
H       0.806289   -2.615020    4.287399
H      -0.785387   -3.707094    1.023152
H      -1.471556   -2.072831    0.579571
H       1.559354   -2.722365    0.844232
