15

N       0.634338   -1.053333   -0.005899
C       0.305459    0.055411    0.021014
C      -0.059095    1.491070    0.033051
C      -0.745263    1.892237    1.370930
C       0.376709    2.576447    2.200201
C       1.645557    2.416112    1.344522
N       1.106267    2.374009   -0.020111
H      -0.710787    1.668734   -0.828233
H      -1.561847    2.585675    1.162560
H      -1.170282    1.021152    1.871499
H       0.146764    3.634898    2.341685
H       0.494931    2.127627    3.188355
H       2.342028    3.252560    1.448230
H       2.179151    1.492274    1.621313
H       1.789189    2.067254   -0.704433
