16

O       0.143080    1.383152   -0.235148
C       0.079725    0.030261   -0.076826
C       0.076979   -0.865193   -1.122502
N      -0.021409   -2.134691   -0.578756
C       0.075470   -3.354708   -1.336548
C       1.514235   -3.706267   -1.723003
O       1.790149   -4.521012   -2.560809
C      -0.058802   -2.040447    0.785311
C      -0.005277   -0.708157    1.135196
H       0.133574    1.792547    0.634515
H       0.116703   -0.706499   -2.186930
H      -0.324339   -4.181925   -0.738684
H      -0.528508   -3.297619   -2.247986
H       2.288313   -3.148708   -1.149569
H      -0.128390   -2.926160    1.396911
H      -0.040639   -0.309555    2.138209
