13

N       0.064497    1.350258    0.185969
C       0.056059   -0.012958    0.037641
N      -1.005516   -0.773735    0.030508
O      -0.532061   -2.073391   -0.060335
N       0.835362   -2.104675   -0.128221
C       1.205232   -0.861834   -0.062833
O       2.463346   -0.382618   -0.106743
C       3.511627   -1.267146    0.013572
N       4.671797   -0.818140   -0.146655
H       0.868875    1.814671   -0.208618
H      -0.811439    1.807378   -0.020354
H       3.187753   -2.282028    0.250696
H       5.357114   -1.559293   -0.012991
