22

C      -0.438120    1.479842    0.539336
O       0.040012    0.231507    0.084176
C       0.666163   -0.514066    1.080610
C      -0.164982   -1.424422    2.045026
C      -0.530272   -2.297564    0.816088
C       1.000649   -1.986223    0.724989
C       2.019458   -2.489810   -0.254929
N       1.144094   -2.161760    2.236653
C       1.104678   -3.510644    2.788676
H       0.370400    2.087462    0.973272
H      -0.850285    2.004625   -0.325653
H      -1.227804    1.365765    1.296404
H       1.477043    0.035249    1.574735
H      -0.785196   -1.138285    2.896157
H      -0.817852   -3.332011    1.002801
H      -1.165995   -1.841179    0.056362
H       1.778313   -2.138626   -1.263094
H       3.017462   -2.124705    0.008415
H       2.047223   -3.584453   -0.275026
H       2.073836   -3.988438    2.609629
H       0.972585   -3.435191    3.873291
H       0.322386   -4.181764    2.402178
