13

O       0.100676    1.492703   -0.113388
C       0.047107    0.106226   -0.032227
C       0.693816   -0.547260   -1.282899
C      -0.022359   -0.183177   -2.501226
N      -0.595586    0.089297   -3.465861
C       0.740637   -0.370723    1.240543
O       1.250427    0.404089    2.012162
C       0.739462   -1.816803    1.490608
N       0.726336   -2.961578    1.653296
H       0.570090    1.809941    0.673476
H      -0.997739   -0.243472    0.029184
H       1.732960   -0.210898   -1.362688
H       0.695350   -1.638625   -1.186678
