16

O      -0.146861    1.314163   -0.014863
N       0.021845   -0.082174    0.052598
C      -1.092879   -0.674658   -0.043498
C      -2.561754   -0.258791   -0.075155
C      -2.906321   -1.753906    0.072239
C      -2.335454   -2.548929   -1.075204
C      -2.223904   -2.047424   -2.416191
C      -2.139423   -1.632530   -3.541799
C      -1.410734   -2.123141    0.070653
H       0.757951    1.630267    0.078145
H      -2.819949    0.338395    0.803364
H      -2.922782    0.242510   -0.976021
H      -3.691335   -2.158385    0.697661
H      -2.575544   -3.608131   -1.013931
H      -2.055112   -1.266094   -4.534754
H      -0.862395   -2.862794    0.639532
