15

N       0.157371    1.398821    0.377472
C      -0.021688    0.042500    0.038979
C      -1.182336   -0.616282   -0.104927
N      -1.182396   -1.986606   -0.347540
C      -0.050674   -2.749144   -0.540601
N      -0.121930   -3.997070   -0.795802
C       1.266751   -2.013529   -0.397680
O       2.331358   -2.587069   -0.516087
N       1.171046   -0.675785   -0.100205
H       2.040088   -0.200863    0.102981
H       0.512969    1.951136   -0.398828
H      -0.705588    1.817920    0.699507
H      -2.144344   -0.130009   -0.049012
H      -2.056468   -2.483270   -0.424917
H       0.830750   -4.351576   -0.889564
