20

C      -0.043644    1.527720    0.082187
C      -0.003397    0.003576   -0.048401
N       0.704658   -0.456958   -1.243099
C      -0.083735   -0.629038   -2.458282
C       0.819576   -0.743137   -3.679769
C       1.984257   -1.647780   -3.318966
O       2.726479   -1.087094   -2.234920
C       2.066046   -0.598960   -1.147603
O       2.696564   -0.310975   -0.156552
H       0.972438    1.917984    0.175609
H      -0.521298    1.996279   -0.785075
H      -0.609609    1.817844    0.973191
H       0.496585   -0.427806    0.820450
H      -1.018654   -0.408022   -0.092681
H      -0.711141   -1.529174   -2.367768
H      -0.766663    0.222695   -2.564696
H       0.259620   -1.145518   -4.529023
H       1.208033    0.240231   -3.965391
H       1.629112   -2.650592   -3.042363
H       2.699007   -1.753696   -4.138198
