18

O       0.105609    0.168777    0.840586
C       0.089746    1.279624    0.348972
N       1.195230    1.974402   -0.013145
C       2.544385    1.418258    0.155853
C       3.424685    2.345471   -0.693232
C       2.673055    3.667073   -0.645459
C       3.215616    4.897904   -0.058461
O       3.074812    4.739066   -1.478732
C       1.188862    3.311481   -0.601435
H      -0.845213    1.839750    0.144626
H       2.834581    1.438638    1.213885
H       2.560567    0.374893   -0.165761
H       4.449289    2.420812   -0.325119
H       3.461392    1.997534   -1.731618
H       2.545247    5.625891    0.396280
H       4.241321    4.916063    0.307506
H       0.783318    3.309890   -1.622360
H       0.605651    4.020789   -0.005675
