24

C      -0.266505    0.231418   -0.846605
O      -0.130649   -0.802472    0.101508
C       0.754905   -0.542935    1.183937
C       0.442394   -1.613235    2.249543
C       1.356909   -1.509176    3.478092
C      -1.033662   -1.551160    2.666138
C       2.200365   -0.561239    0.715193
C       2.855972    0.670083    0.201432
N       3.262344    0.099689    1.493878
H       0.639114    0.372714   -1.450759
H      -1.087983   -0.052994   -1.509505
H      -0.517198    1.191507   -0.368176
H       0.539976    0.458956    1.605961
H       0.621023   -2.583977    1.766922
H       1.100802   -2.288099    4.203247
H       2.413424   -1.620558    3.223689
H       1.228608   -0.543957    3.984734
H      -1.690784   -1.640936    1.799979
H      -1.269621   -2.356314    3.369270
H      -1.256813   -0.600450    3.166657
H       2.507919   -1.516110    0.291934
H       3.601507    0.603520   -0.585902
H       2.280160    1.592301    0.202639
H       2.846701    0.639428    2.250062
