16

C      -0.013160    1.479226    0.075265
C      -0.013023   -0.010877   -0.014254
C       0.023337   -0.769723   -1.124673
C      -0.006977   -2.214587   -0.781467
O      -0.071141   -3.152444   -1.543429
C       0.029933   -2.290644    0.733815
C       1.257465   -1.689033    1.396409
C      -0.002601   -0.867157    1.219210
H       0.846895    1.832398    0.657602
H       0.016788    1.947241   -0.911201
H      -0.908694    1.835422    0.599618
H       0.081331   -0.416258   -2.146237
H      -0.484974   -3.102997    1.229637
H       1.494250   -2.048619    2.392706
H       2.116931   -1.445363    0.780740
H      -0.562615   -0.560278    2.095223
