15

O       0.035470    0.049745    0.171354
C      -0.003880    1.236852   -0.009406
C      -1.270114    2.074652   -0.267301
C      -0.724877    3.352494   -0.949939
C      -1.428311    4.574758   -0.559290
N      -1.998125    5.525554   -0.234021
N       0.739834    3.465869   -0.660414
C       1.050824    3.397299    0.760621
C       1.166757    2.169575   -0.088523
H      -1.966582    1.522980   -0.899256
H      -1.778090    2.278132    0.679945
H      -0.806534    3.249263   -2.036766
H       1.961908    3.910361    1.050036
H       0.244650    3.456859    1.487459
H       2.134325    1.772906   -0.373334
