16

C      -0.096944    1.561182   -0.023408
C      -0.018234    0.053660    0.019582
C       1.292318   -0.660481   -0.247136
C       0.749943   -0.668735    1.155954
C       1.364768    0.093659    2.199921
C       1.876564    0.724042    3.087321
C      -1.239297   -0.676249   -0.413818
O      -2.257824   -0.148714   -0.783512
H       0.807672    2.013980    0.386887
H      -0.228367    1.903586   -1.053892
H      -0.954699    1.916802    0.553606
H       1.271492   -1.595557   -0.797375
H       2.149670   -0.029673   -0.449304
H       0.305881   -1.605890    1.482499
H       2.329470    1.279065    3.871131
H      -1.146791   -1.788262   -0.373094
