19

C      -0.318634    1.512322    0.083405
C       0.092706    0.043158   -0.042361
C       0.646457   -0.535501    1.263527
C       1.060852   -2.013200    1.130479
C       1.597392   -2.584614    2.404255
N       2.862043   -2.873046    2.571540
O       2.980870   -3.346876    3.849374
N       1.775238   -3.356170    4.489352
C       0.919970   -2.893167    3.622320
H       0.532165    2.138097    0.374071
H      -0.707607    1.898344   -0.863624
H      -1.098711    1.642438    0.841646
H      -0.769518   -0.554570   -0.366625
H       0.848383   -0.061362   -0.831774
H       1.514907    0.049607    1.590390
H      -0.106113   -0.435394    2.057024
H       0.196533   -2.606325    0.806840
H       1.828411   -2.117610    0.357817
H      -0.125250   -2.796422    3.872905
