16

N       0.090634   -1.102789   -0.075843
C       0.023754    0.051721   -0.016638
C      -0.052188    1.471069    0.053393
C      -1.117423    2.232414    0.844129
C      -0.648290    3.633900    0.397106
C       0.846817    3.634940    0.784856
C       1.199046    2.380664   -0.002895
C       0.228889    2.385150   -1.147932
O      -0.607335    3.507506   -1.038397
H      -2.129319    2.002534    0.503640
H      -1.045254    2.080909    1.923476
H      -1.257744    4.489844    0.674995
H       1.369293    4.519549    0.411451
H       1.005847    3.540922    1.861633
H       2.192117    1.960856   -0.075910
H       0.413505    2.031228   -2.151357
