15

O       0.008278    0.021962    0.482547
C       0.029986    1.161355    0.114291
O      -1.166138    1.829542    0.001359
C      -1.461287    2.975953   -0.713962
N      -0.914680    3.535812   -1.691112
C       0.331132    3.109435   -2.294902
C       1.467547    2.814177   -1.327432
N       1.361972    3.341077    0.024580
C       1.303371    1.881242   -0.172197
H      -2.403137    3.355595   -0.324359
H       0.162075    2.222325   -2.923046
H       0.652599    3.908011   -2.972506
H       2.450276    2.794088   -1.796467
H       2.267946    3.603948    0.401023
H       2.157633    1.273967    0.109413
