16

C      -0.012025    1.431204    0.495199
C      -0.099988   -0.051865    0.196016
C      -1.303737   -0.658366   -0.382887
O      -0.149212   -0.405886   -1.188496
C       1.348435    1.990183    0.201735
C       2.205100    2.662104    1.015143
O       3.329049    2.993210    0.362805
N       3.240695    2.527869   -0.946870
C       2.074014    1.941344   -1.027796
H      -0.771376    1.947987   -0.103916
H      -0.264759    1.601739    1.548094
H       0.561894   -0.685318    0.788374
H      -1.524799   -1.708639   -0.200461
H      -2.168864   -0.032148   -0.597525
H       2.152328    2.971072    2.048114
H       1.769583    1.484996   -1.958892
