19

C      -0.026668    1.506003    0.051394
C      -0.000268    0.003117   -0.012246
C       0.040449   -0.687748   -1.222786
C       0.062296   -2.078326   -1.176655
C       0.106349   -2.923253   -2.420175
N       0.044742   -2.731444   -0.006007
C       0.005610   -1.987974    1.103749
C      -0.014184   -2.712902    2.422273
N      -0.017713   -0.650210    1.154081
H      -0.009746    1.956065   -0.943868
H      -0.924424    1.844290    0.578337
H       0.832556    1.873356    0.621356
H       0.054588   -0.158449   -2.168753
H       0.995945   -3.560985   -2.410114
H      -0.760978   -3.590248   -2.452485
H       0.118054   -2.313422   -3.326470
H       0.846343   -2.415794    3.030139
H      -0.910410   -2.442041    2.989405
H       0.005746   -3.791223    2.263778
