18

C      -0.285796    1.550025    0.219775
C      -0.023180    0.096832    0.012070
C       0.219007   -0.662775   -1.109166
N       0.399953   -1.989911   -0.764893
C       0.276073   -2.038111    0.538186
N       0.022132   -0.806636    1.060895
C       0.279659   -0.246051   -2.523786
C       1.255385   -0.894984   -3.443616
N      -0.178815   -1.188871   -3.564287
H       0.514768    2.039991    0.788129
H      -0.361195    2.059651   -0.743020
H      -1.225422    1.724344    0.758316
H       0.355118   -2.922706    1.152567
H      -0.117120   -0.587872    2.033405
H       0.001558    0.787242   -2.715223
H       1.682062   -0.328684   -4.267497
H       1.901364   -1.653504   -3.011221
H      -0.360384   -2.078610   -3.100798
