19

C      -0.062479    1.599125    0.053905
C       0.018658    0.072879    0.014473
N       0.782670   -0.428560   -1.125213
C       1.789648   -1.311179   -0.843791
O       2.486004   -1.898888   -1.643247
C       1.845111   -1.428114    0.671217
C       2.347433   -2.706525    1.275614
N       2.181174   -0.097313    1.253638
C       0.776091   -0.543551    1.191151
H       0.939707    2.022153    0.151227
H      -0.528553    1.991273   -0.856074
H      -0.670125    1.925213    0.904312
H      -0.998811   -0.345205   -0.005005
H       0.622094   -0.120784   -2.071067
H       3.373256   -2.898274    0.947215
H       2.329371   -2.660280    2.369263
H       1.736872   -3.557637    0.958252
H       2.530084   -0.247149    2.199412
H       0.239378   -0.757657    2.108845
