17

O      -0.000134    1.396032    0.050786
C       0.044665   -0.016551   -0.015344
C      -1.402763   -0.510539    0.001436
O      -1.460267   -1.901960   -0.247069
C      -1.046881   -2.237878   -1.554345
C       0.199735   -1.527398   -1.992018
C       0.726874   -0.515664   -1.289020
C       1.915501    0.164670   -1.669428
C       2.911992    0.798640   -1.914853
H       0.882765    1.728371   -0.151219
H       0.579742   -0.429481    0.855349
H      -1.856179   -0.343844    0.981123
H      -1.972839    0.060309   -0.747719
H      -0.886516   -3.322951   -1.559487
H      -1.854035   -2.034869   -2.283808
H       0.661616   -1.861334   -2.916544
H       3.797092    1.330890   -2.162658
