17

O      -0.056747    1.424017    0.000736
C      -0.100355    0.035937   -0.046113
C      -0.417274   -0.772516    1.169378
O      -1.315980   -0.013653    1.991442
C      -2.341212   -0.073548    0.951867
C      -1.388478   -0.773298   -0.010220
C      -1.774301   -1.835897   -1.010471
C      -2.565666   -1.299752   -2.116388
C      -3.224748   -0.837232   -3.008226
H      -0.313199    1.667951    0.900930
H       0.657129   -0.379758   -0.706233
H       0.191931   -1.529429    1.652067
H      -3.175044   -0.701546    1.283092
H      -2.704210    0.918809    0.666129
H      -0.867591   -2.313315   -1.404013
H      -2.342161   -2.632833   -0.510412
H      -3.801052   -0.432692   -3.803002
