15

C       0.063454   -1.159139   -0.051691
C      -0.002628    0.041398    0.006922
C      -0.069281    1.458168    0.066714
C      -1.067008    2.262863    0.899295
C      -0.516985    3.629562    0.445853
O       0.871068    3.543590    0.757244
C       1.168448    2.382919    0.016009
C       0.208458    2.386450   -1.137805
O      -0.570997    3.548898   -0.975983
H       0.117072   -2.218264   -0.099615
H      -2.102487    2.108806    0.591792
H      -0.953420    2.104580    1.972865
H      -0.950698    4.556188    0.809546
H       2.197835    2.058853    0.025934
H       0.384931    2.065519   -2.152997
