15

O      -0.139546    1.387999   -0.061250
C      -0.045621   -0.000767    0.042381
C      -0.530845   -0.686316    1.291420
C      -1.359217   -0.719181    0.032609
C      -2.737071   -0.154378   -0.278962
O      -3.006407   -1.343958   -1.097912
C      -1.763551   -1.879519   -0.806846
N      -1.224030   -2.957302   -1.153350
H       0.572780    1.776791    0.457404
H       0.768344   -0.466021   -0.512276
H      -0.055701   -1.612879    1.595272
H      -0.892628   -0.052441    2.094614
H      -3.442262   -0.089438    0.553428
H      -2.758414    0.755648   -0.881706
H      -1.835382   -3.507095   -1.758070
