27

C       2.106200    0.100302    1.807840
C       1.294491   -1.165596    1.521990
C       0.053453   -0.902955    0.656044
C      -0.722830   -2.168404    0.346436
C      -1.828601   -2.716162    1.235485
C      -2.279829   -2.045740    2.516735
C      -2.157656   -2.191275   -0.151844
C      -2.934608   -0.897883   -0.324388
C      -2.497308   -3.223835   -1.213349
H       2.987374   -0.117750    2.419513
H       2.453240    0.566461    0.878698
H       1.505960    0.844392    2.343777
H       1.932417   -1.905289    1.020282
H       0.982894   -1.627930    2.467100
H      -0.577873   -0.162565    1.159210
H       0.369331   -0.432364   -0.286074
H      -0.088715   -2.934175   -0.099642
H      -1.844461   -3.801950    1.311971
H      -2.231565   -0.955592    2.468609
H      -3.315222   -2.315222    2.755007
H      -1.657213   -2.361997    3.361441
H      -2.702904   -0.148358    0.434266
H      -2.723885   -0.449330   -1.302690
H      -4.013944   -1.087540   -0.280162
H      -3.562530   -3.485246   -1.186102
H      -2.276784   -2.846016   -2.219490
H      -1.925063   -4.146212   -1.072104
