12

N       0.096504    1.320540    0.144940
C      -0.071534   -0.029637    0.042996
N      -1.170378   -0.714579    0.020490
C      -0.704630   -2.037253    0.007613
C       0.646768   -2.021287    0.011914
O       1.228607   -3.198407   -0.022231
N       0.132989   -4.138997   -0.047217
C      -0.980616   -3.424733   -0.030147
O       1.127847   -0.761300    0.035419
H       0.938038    1.687053   -0.274858
H      -0.738314    1.844724   -0.071371
H      -1.917670   -3.962911   -0.045661
