16

C      -0.109525    1.566553    0.017938
C      -0.015663    0.042627   -0.058034
O      -1.316456   -0.548061   -0.002686
C       0.808463   -0.485720   -1.208603
C       1.824849   -1.254967   -0.817009
C       1.911389   -1.399095    0.678597
C       0.753892   -0.525401    1.174484
O       0.477896   -0.283495    2.316863
H       0.880841    2.031666    0.001466
H      -0.675462    1.957988   -0.836292
H      -0.618146    1.849446    0.943116
H      -1.859736   -0.124624   -0.676498
H       0.562784   -0.255301   -2.240291
H       2.527583   -1.739548   -1.485732
H       1.784045   -2.432561    1.026242
H       2.857782   -1.047274    1.107956
