15

C      -0.027232    1.488238    0.032842
C      -0.007368   -0.018918   -0.005848
O       0.015659   -0.723422    0.985102
C      -0.017014   -0.652980   -1.342600
N      -0.037575   -0.073888   -2.539623
C      -0.039270   -1.136834   -3.386283
N      -0.118598   -0.993314   -4.753115
N      -0.014471   -2.333979   -2.789718
N      -0.005073   -1.989628   -1.484731
H       0.836949    1.889030   -0.506557
H      -0.914766    1.865183   -0.485279
H      -0.018898    1.826933    1.069016
H       0.245569   -0.114155   -5.088154
H       0.216512   -1.791031   -5.272492
H       0.012088   -2.681062   -0.752003
