18

C       0.043738    1.449008    0.085316
C      -0.069915   -0.035735    0.029750
C      -0.038122   -0.894479   -1.013523
C       0.000810   -2.274345   -0.365502
C      -0.023356   -3.538353   -1.180522
N      -0.913471   -2.135915    0.818936
C      -0.062996   -0.979984    1.228379
C       1.118620   -1.906689    0.708709
O       2.239672   -2.176981    0.971433
H       0.954015    1.751733    0.618081
H       0.080684    1.884760   -0.916793
H      -0.798795    1.898023    0.625096
H       0.096869   -0.678067   -2.065184
H       0.806680   -3.549274   -1.893618
H       0.066743   -4.413768   -0.532809
H      -0.955887   -3.624660   -1.748663
H      -1.837958   -1.811738    0.519848
H      -0.149037   -0.595457    2.242878
