18

O      -0.306469    1.517038   -0.382085
C      -0.051187    0.157691   -0.039229
C      -1.420674   -0.509575    0.095998
C      -1.378680   -1.938247    0.635633
O      -0.902932   -2.892253   -0.294026
C       0.500311   -2.944031   -0.452537
C       1.129952   -1.790111   -1.202569
C       0.880789   -0.491895   -1.041162
H       0.536023    1.980992   -0.415509
H       0.436776    0.114095    0.953355
H      -2.017478    0.107294    0.777865
H      -1.922250   -0.505258   -0.877105
H      -0.782129   -1.980700    1.564066
H      -2.395125   -2.257397    0.887424
H       0.985907   -3.051425    0.535558
H       0.692937   -3.871849   -0.999948
H       1.878176   -2.077624   -1.938173
H       1.421976    0.216815   -1.666733
