19

C      -0.086935    1.473861    0.022927
C      -0.046672   -0.018290    0.068070
C      -1.035394   -0.898371    0.210275
C      -2.453174   -1.266861   -0.161670
O      -2.321974   -1.766967   -1.518295
C      -2.011421   -2.655716   -0.447794
C      -0.588497   -2.341646    0.102936
C       0.754213   -2.220092   -0.630415
C       1.249828   -0.817134   -0.141491
H       0.510391    1.913533    0.832431
H       0.339046    1.849765   -0.915969
H      -1.107961    1.853748    0.113453
H      -3.419581   -0.867863    0.119190
H      -2.567012   -3.585657   -0.398694
H      -0.488951   -2.811704    1.091549
H       1.468135   -3.022239   -0.423033
H       0.581047   -2.178976   -1.710666
H       1.904644   -0.328275   -0.872594
H       1.833270   -0.900232    0.787297
