21

C      -0.009585    1.442874   -0.068860
O      -0.009994    0.026099   -0.019942
C       0.627364   -0.515738    1.075061
C       0.026117   -1.688070    1.766055
C       0.319316   -0.426469    2.566890
C       1.823573   -0.156353    2.852540
C       2.823729   -1.176390    2.362423
C       2.825640   -2.699782    2.495898
C       2.140151   -0.266060    1.364269
H       1.001862    1.853711   -0.188568
H      -0.608396    1.727978   -0.936818
H      -0.456646    1.873298    0.837708
H      -1.033050   -1.781120    1.540420
H       0.524042   -2.635301    1.913329
H      -0.471872    0.093736    3.090552
H       2.116948    0.638330    3.528602
H       3.823219   -0.773922    2.531465
H       2.596483   -3.199788    1.550597
H       3.819408   -3.037518    2.805741
H       2.118983   -3.052825    3.250933
H       2.715228    0.422032    0.756504
