17

C       0.137056    1.414449    0.410049
C       0.030864   -0.000908   -0.123211
O       0.950366   -0.560511   -0.686800
C      -1.261539   -0.680274    0.056591
C      -1.587576   -2.174479    0.282162
C      -2.582518   -1.811422    1.388753
C      -2.697914   -0.446859    0.665253
O      -3.319009   -0.793384   -0.608419
C      -2.102979   -1.450746   -0.941019
H       1.134013    1.808886    0.210416
H      -0.617216    2.055067   -0.061127
H      -0.059102    1.431544    1.488467
H      -0.878390   -2.989326    0.227757
H      -3.506776   -2.390551    1.474402
H      -2.086382   -1.721925    2.357618
H      -3.115473    0.448133    1.120633
H      -1.892617   -1.708245   -1.969875
