19

O      -0.091392    1.358735   -0.020840
C      -0.016185   -0.046978    0.161528
C      -1.381881   -0.628411   -0.198572
C      -1.419291   -2.113116   -0.064679
O      -0.583688   -2.910840   -0.916455
C      -1.359628   -4.057304   -0.469480
C      -0.917458   -4.245432    1.004627
C      -1.624548   -2.911760    1.243705
C      -2.520827   -3.113485    0.019743
H       0.782758    1.728183    0.132847
H       0.752420   -0.499446   -0.481773
H       0.231637   -0.305438    1.203238
H      -2.144699   -0.187533    0.453238
H      -1.628211   -0.340157   -1.226721
H      -1.398353   -4.867157   -1.194765
H      -1.448493   -5.071698    1.484654
H       0.160010   -4.322523    1.182292
H      -1.877049   -2.433206    2.181683
H      -3.590592   -3.071424   -0.131705
