17

C       0.136468    1.473630    0.138849
C       0.068755    0.019807    0.091660
C       0.023032   -1.182445    0.044545
C      -0.053251   -2.641156   -0.011277
C      -1.478234   -3.162917   -0.057571
C      -2.417807   -2.832863    1.066681
N      -1.757439   -3.884876   -1.073253
O      -3.073736   -4.373010   -1.032997
H       0.953626    1.852658   -0.484833
H      -0.792680    1.926744   -0.224111
H       0.304546    1.834414    1.159629
H       0.475303   -3.023622   -0.890319
H       0.449222   -3.064550    0.871222
H      -3.449952   -2.811820    0.714634
H      -2.352927   -3.595895    1.852424
H      -2.156589   -1.869094    1.509387
H      -3.137992   -4.840729   -1.872138
