24

C      -0.378770    1.497791   -1.503250
C      -0.140382    0.138681   -0.881397
N       1.197174   -0.376830   -0.555756
C       2.366776    0.420607   -0.785928
C       3.689743   -0.224334   -0.462349
C       3.274182   -0.031969   -1.900988
C       0.267021   -0.085209    0.547343
C       0.512335    1.078666    1.490188
C      -0.244411   -1.327646    1.254446
H       0.170646    2.305505   -1.016865
H      -0.091307    1.491042   -2.560573
H      -1.444245    1.746919   -1.453725
H      -0.778099   -0.630396   -1.321016
H       2.309408    1.496632   -0.626989
H       4.481871    0.397701   -0.060565
H       3.651151   -1.232058   -0.065771
H       2.961591   -0.912748   -2.449322
H       3.779507    0.723337   -2.492569
H       0.836741    1.990851    0.988158
H      -0.403425    1.313434    2.043800
H       1.280732    0.814278    2.225866
H       0.457747   -1.651427    2.031703
H      -1.210780   -1.135684    1.735524
H      -0.364441   -2.150697    0.545936
