18

C      -0.638159    1.401025   -0.014604
C       0.184995    0.127896    0.026401
C       1.058457   -0.144923   -1.243883
C       2.314191   -0.667835   -0.612656
C       3.535900   -1.245433   -0.854773
N       4.183734   -1.331594    0.356235
C       3.394786   -0.825410    1.383776
C       2.241784   -0.410247    0.772731
O       1.088042    0.194429    1.169836
H       0.007422    2.269560   -0.177584
H      -1.369458    1.353498   -0.828020
H      -1.178407    1.543381    0.925381
H      -0.470009   -0.738069    0.196633
H       0.553006   -0.843331   -1.917610
H       1.227984    0.784201   -1.804842
H       4.006029   -1.598843   -1.758270
H       5.081023   -1.760241    0.493060
H       3.733415   -0.814673    2.404939
