21

C      -0.179349    1.524688    0.098573
C       0.058176    0.004875    0.035041
C       0.759231   -0.438460   -1.224162
C       2.030284   -0.858143   -1.228158
C       2.706972   -1.294065   -2.472834
O       2.031887   -2.285752   -3.291489
C       2.102368   -0.944920   -3.769501
C       0.821776   -0.142064   -3.759456
C      -0.035695   -0.435719   -2.513071
H       0.771292    2.066592    0.080959
H      -0.780071    1.877451   -0.745888
H      -0.709392    1.795777    1.016868
H       0.645241   -0.304523    0.906601
H      -0.910262   -0.508992    0.111076
H       2.604695   -0.890608   -0.306184
H       3.782769   -1.448525   -2.418674
H       2.755234   -0.803105   -4.632108
H       1.096059    0.921075   -3.787414
H       0.239321   -0.341176   -4.666013
H      -0.502169   -1.421529   -2.631232
H      -0.857036    0.286316   -2.456725
