18

C      -0.054026    1.395047    0.002785
N      -0.014855   -0.033400   -0.196926
C      -1.173479   -0.869990    0.051750
C      -0.591878   -2.285163   -0.128746
N       0.810017   -2.077134    0.180342
C       1.788862   -3.122256    0.002992
C       1.158534   -0.744840    0.009606
O       2.283244   -0.285983    0.036236
H       0.965175    1.772042   -0.097617
H      -0.692535    1.874600   -0.747208
H      -0.434555    1.661023    1.000962
H      -1.560078   -0.725230    1.073768
H      -1.987339   -0.659925   -0.649380
H      -1.054292   -3.015897    0.542284
H      -0.725294   -2.642088   -1.163027
H       1.743591   -3.562100   -1.005170
H       2.775901   -2.680765    0.150699
H       1.638023   -3.923718    0.734472
