18

O       0.105212    1.412359   -0.086988
C       0.031933   -0.005331   -0.004640
C       0.722202   -0.516463    1.259081
O      -0.027339   -0.151851    2.430741
C      -1.373298   -0.273865    2.315386
N      -2.067921   -0.463579    1.273073
C      -1.395514   -0.523347    0.002707
C      -2.261773   -0.274743   -1.206736
C      -1.792990   -1.671316   -0.902274
H      -0.477668    1.780680    0.585938
H       0.574081   -0.375178   -0.880827
H       0.822800   -1.609005    1.228267
H       1.706816   -0.062393    1.380766
H      -1.845450   -0.169103    3.289874
H      -3.300857   -0.038977   -1.011008
H      -1.813365    0.258196   -2.037461
H      -1.023508   -2.111165   -1.528594
H      -2.514466   -2.373120   -0.501446
