13

O       0.083496    1.391164   -0.013480
C       0.051597   -0.012460    0.035469
C      -1.410766   -0.559052    0.013546
C      -2.089893   -0.089657   -1.198142
C      -2.590592    0.347834   -2.199483
C      -1.421576   -2.016857    0.131748
C      -1.380158   -3.211870    0.242462
H      -0.342745    1.660109   -0.836492
H       0.608299   -0.477220   -0.790260
H       0.518711   -0.312099    0.976920
H      -1.920482   -0.123479    0.884055
H      -3.062610    0.708922   -3.080024
H      -1.360396   -4.269331    0.339018
