14

C      -0.042035    1.464448    0.025179
C       0.003171    0.010902    0.020348
C       0.032793   -1.194750    0.018184
C       0.069222   -2.610161    0.015255
C       1.157974   -3.418176   -0.234955
N       0.694535   -4.705213   -0.122037
C      -0.633628   -4.632061    0.186776
N      -1.046847   -3.393735    0.278077
H       0.664931    1.885721    0.749212
H       0.206717    1.877512   -0.959231
H      -1.041883    1.824420    0.291616
H       2.182693   -3.191120   -0.474338
H       1.237136   -5.543525   -0.245028
H      -1.239754   -5.514030    0.331300
