20

C      -0.087797    1.486305    0.059013
N       1.246423    0.899837   -0.009161
C       2.045326    0.482637    1.162824
C       1.560144   -0.967179    1.401046
C       0.043149   -0.745300    1.303796
C       0.064036    0.009238   -0.029100
C       0.186980   -0.960885   -1.180236
O       1.465582   -1.595620   -1.050787
C       1.908960   -1.956086    0.256294
H      -0.475942    1.867891    1.005303
H      -0.345554    2.097066   -0.804377
H       3.106292    0.551330    0.904487
H       1.872172    1.100558    2.055908
H       1.914478   -1.391262    2.347046
H      -0.534290   -1.672328    1.257793
H      -0.342809   -0.139698    2.128675
H      -0.623771   -1.706105   -1.178730
H       0.205953   -0.459014   -2.150783
H       2.993099   -2.078142    0.159925
H       1.488720   -2.935768    0.541883
