18

C       0.295430    1.532249   -0.032193
C       0.151290    0.041955   -0.113501
N      -0.042300   -0.563617   -1.208161
C      -0.225062   -2.010665   -1.200691
C      -0.630574   -2.562323    0.168045
C       0.286830   -1.936558    1.220035
O       0.262258   -0.511005    1.137905
C      -0.132312   -2.307332    2.633708
O      -0.069607   -3.427979    3.063908
H       1.274512    1.798372    0.378886
H       0.182378    1.963548   -1.025691
H      -0.461048    1.948592    0.640814
H      -0.984419   -2.258255   -1.950298
H       0.705757   -2.483361   -1.543109
H      -1.669205   -2.289852    0.389013
H      -0.551010   -3.651055    0.220983
H       1.317178   -2.286779    1.065566
H      -0.521318   -1.452828    3.230093
