23

C       0.596165    1.343133   -0.641404
C      -0.273641    0.692910    0.411540
C      -0.281226   -0.783365    0.602828
N       0.278272    0.095733    1.630240
C       1.721675    0.090623    1.847637
C       2.081420   -0.462859    3.225481
C       3.561633   -0.717186    3.411417
C       1.245151   -0.078481    4.387564
N       1.195910   -1.457437    3.852412
H       1.487151    0.751562   -0.866131
H       0.029547    1.460038   -1.571089
H       0.920718    2.341328   -0.326740
H      -1.206190    1.225331    0.596905
H      -1.193943   -1.312259    0.865930
H       0.419812   -1.362821    0.002389
H       2.259527   -0.494027    1.082814
H       2.096661    1.120007    1.777717
H       4.139939    0.206914    3.293208
H       3.756417   -1.121887    4.407224
H       3.930940   -1.441943    2.676280
H       1.696885    0.017522    5.371504
H       0.388879    0.562093    4.199294
H       0.348688   -1.531342    3.292348
