14

C      -0.104709    1.390017   -0.036163
N      -0.044264   -0.055706    0.015631
N      -0.175848   -0.795430   -1.109423
C      -0.070172   -2.045912   -0.650489
N      -0.207111   -3.146833   -1.459127
N       0.127238   -2.151216    0.688430
C       0.136261   -0.879113    1.072570
C       0.310796   -0.401764    2.398761
N       0.450824    0.027207    3.464581
H       0.033169    1.782587    0.971858
H       0.683738    1.769273   -0.690598
H      -1.075664    1.705865   -0.425103
H      -0.016000   -2.979943   -2.435280
H       0.227011   -3.980026   -1.092369
