16

C      -0.025175    1.566747    0.056609
C      -0.021710    0.018497    0.056793
C       0.761787   -0.507315    1.174855
C       1.404941   -0.912310    2.105663
C      -1.432002   -0.522582    0.073809
N      -1.986898   -0.913245   -1.048717
O      -3.280162   -1.305525   -0.716281
C      -3.455140   -1.139473    0.602654
C      -2.329762   -0.646286    1.174602
H       0.998974    1.945039    0.010932
H      -0.580888    1.935505   -0.809154
H      -0.494225    1.952633    0.965571
H       0.431112   -0.320360   -0.882319
H       1.979414   -1.283977    2.917852
H      -4.424331   -1.418797    0.986170
H      -2.145954   -0.419068    2.210773
