15

O      -0.100924    1.415470   -0.066406
C       0.031786    0.012348    0.057944
C       0.593634   -0.592700   -1.164944
N       1.069883   -1.021683   -2.126218
C       0.871462   -0.365389    1.288851
C       0.230106   -0.044261    2.652604
C       0.255588   -1.574221    2.855558
O       0.840841   -1.778145    1.545386
H       0.753411    1.781903   -0.323138
H      -0.981839   -0.378020    0.198182
H       1.898290    0.002025    1.150252
H       0.852235    0.533243    3.336270
H      -0.758399    0.413919    2.595008
H       0.916388   -1.935562    3.651001
H      -0.717518   -2.069163    2.946580
