19

C       0.091665    1.591574   -0.021974
C      -0.046162    0.066921   -0.022582
C       0.639352   -0.604239   -1.202052
C       0.540219   -2.138752   -1.246705
C       0.587639   -2.415012   -2.747271
O      -0.057563   -3.589867   -3.154680
C      -0.098857   -1.172282   -3.312470
O      -0.671777   -1.107728   -4.365361
O       0.002164   -0.154386   -2.437245
H       1.143419    1.894128    0.027826
H      -0.339098    2.020093   -0.930590
H      -0.422250    2.028772    0.838656
H       0.387348   -0.354601    0.893280
H      -1.104451   -0.220272   -0.031388
H       1.688429   -0.283655   -1.256544
H       1.334832   -2.623205   -0.676937
H      -0.426932   -2.472990   -0.856089
H       1.635166   -2.393418   -3.098338
H      -0.481874   -3.380752   -3.999383
