19

C      -0.221137    1.596094    0.101424
C      -0.003271    0.077774    0.034839
C       0.735430   -0.348164   -1.247901
C       2.200920    0.076097   -1.279591
O       2.780533    0.331151   -2.315825
C       2.890286    0.122691    0.030134
C       2.241682   -0.116341    1.175146
C       0.773270   -0.466096    1.247730
O       0.166631    0.039956    2.429674
H       0.724490    2.146335    0.079249
H      -0.818755    1.924941   -0.754407
H      -0.747995    1.868925    1.017459
H      -0.988201   -0.402837    0.043858
H       0.724723   -1.444871   -1.333459
H       0.248242    0.042750   -2.145003
H       3.947003    0.370018    0.003072
H       2.773316   -0.077404    2.125137
H       0.690253   -1.568364    1.231176
H       0.565508   -0.395273    3.189651
