17

C      -0.056816    1.566497    0.000889
C       1.489120    1.523316    0.017878
C       2.210980    1.399880    1.380138
C       2.022022   -0.152423    1.240717
C       0.883143   -0.738292    2.025929
C      -0.253299   -0.654802    1.334746
C      -0.013525   -0.002869    0.002706
N       1.487800    0.018466   -0.161736
H      -0.549967    2.034573    0.856061
H      -0.463506    1.992732   -0.919545
H       1.997446    2.117646   -0.746125
H       3.255335    1.719499    1.342209
H       1.728646    1.867170    2.241884
H       2.946505   -0.735731    1.298360
H       0.994730   -1.132039    3.029620
H      -1.233775   -0.968316    1.674248
H      -0.546757   -0.479074   -0.826229
