19

C       0.102907    1.550993   -0.064439
C       0.011967    0.025025    0.002563
C      -1.434506   -0.485658    0.029064
O      -2.175560   -0.047000   -1.097611
C      -1.478459   -2.027313    0.170925
C      -2.824563   -2.565944    0.265347
C      -3.945184   -3.013643    0.354599
C      -5.206224   -3.514743    0.454905
C      -6.324546   -3.961737    0.544977
H       1.142750    1.881839   -0.140575
H      -0.446701    1.931463   -0.929080
H      -0.330119    2.009432    0.831235
H       0.523986   -0.420139   -0.863707
H       0.537467   -0.346562    0.891275
H      -1.957153   -0.048061    0.887863
H      -1.767110   -0.419365   -1.887736
H      -0.959333   -2.475452   -0.689682
H      -0.901044   -2.320312    1.057758
H      -7.308713   -4.351684    0.623170
