19

C      -0.175578    1.478504   -0.184849
O       1.073306    2.060781    0.208485
C       1.877589    1.066474    0.850183
C       1.524089    0.926859    2.339583
C       0.144193    0.238343    2.504222
C      -0.034621   -0.731316    1.334526
O       1.267098   -1.340840    1.064746
C       1.516245   -0.266652    0.131233
C       0.011650   -0.024964   -0.060499
H      -0.993347    1.864574    0.439615
H      -0.380139    1.774623   -1.220523
H       2.917198    1.375456    0.715995
H       2.290179    0.308059    2.815212
H       1.545440    1.910622    2.815331
H       0.101675   -0.307277    3.451875
H      -0.674885    0.966314    2.520633
H      -0.809617   -1.484938    1.494527
H       2.179464   -0.554546   -0.686243
H      -0.469502   -0.613868   -0.840802
