16

C      -0.033670    1.595811    0.069444
C       0.018176    0.061826   -0.013748
C       0.803106   -0.462035   -1.204526
C       1.775748   -1.308430   -0.862257
C       1.823116   -1.443573    0.628045
O       2.110799   -0.198191    1.311002
C       0.744650   -0.582201    1.167711
C       2.301593   -2.641625    1.269090
N       2.686704   -3.618882    1.751288
H       0.975324    2.001731    0.176047
H      -0.485150    2.018231   -0.832936
H      -0.630184    1.919640    0.927505
H      -1.009303   -0.326441   -0.047588
H       0.598167   -0.126170   -2.215076
H       2.468646   -1.813317   -1.521551
H       0.225584   -0.806699    2.095267
