17

O       0.407480    0.050059   -0.082470
C       0.217809    1.231592   -0.078292
N      -0.968848    1.990403   -0.167846
C      -0.247436    3.265529   -0.006492
C       0.553295    3.261062    1.259911
C       1.064520    2.488929    0.035876
C      -0.662635    4.434868   -0.822200
C      -1.531441    5.490838   -0.231381
N      -0.132095    5.781635   -0.576979
H      -1.816982    1.754851    0.337160
H       1.133644    4.149840    1.494434
H       0.194028    2.721019    2.131347
H       2.015578    2.704206   -0.429593
H      -0.789513    4.200635   -1.876763
H      -2.272218    5.989884   -0.848881
H      -1.797320    5.394008    0.818148
H       0.433533    5.793865    0.267837
