17

C       0.051658   -1.216919    0.031339
C       0.085704   -0.014870    0.040511
C       0.099767    1.421334    0.059294
C       0.514041    2.238966    1.263037
C       1.634466    1.526603    2.038166
C       2.490879    1.626072    0.757875
C       3.921828    1.904921    0.648596
O       3.370405    0.637980    0.260361
C       1.363295    2.267233   -0.013100
H       0.039778   -2.278318    0.011443
H      -0.717500    1.878400   -0.494374
H      -0.126825    3.016688    1.657328
H       2.038208    2.113455    2.866178
H       1.402488    0.515108    2.379897
H       4.296911    2.520481   -0.168901
H       4.544918    1.892120    1.542547
H       1.463314    3.040227   -0.765757
