21

C       0.080211    1.478462   -0.521237
C       0.000841    0.204566    0.328426
C      -1.378382   -0.407247    0.313903
O      -1.770962   -1.089667   -0.899269
C      -1.611925   -1.850164    0.277674
C      -0.670044   -3.036712    0.445759
O      -1.694179   -3.751112    1.170788
C      -2.693373   -2.725957    0.914941
C      -3.390740   -2.259049    2.175754
H       1.088936    1.900888   -0.504024
H      -0.182836    1.262475   -1.560827
H      -0.610241    2.244614   -0.152142
H       0.723113   -0.534037   -0.036657
H       0.270864    0.427438    1.369044
H      -2.170863    0.221979    0.725840
H      -0.401682   -3.528447   -0.498355
H       0.233860   -2.883457    1.047498
H      -3.423473   -3.074409    0.170054
H      -2.668764   -1.872809    2.901165
H      -4.115055   -1.471090    1.942722
H      -3.932321   -3.090504    2.637236
