16

C      -0.048474    1.448425    0.083755
C       0.036491   -0.045273   -0.020644
C       0.721247   -0.736078   -1.228713
C       0.465048   -2.145911   -0.722935
C       0.480593   -1.992420    0.795051
O       0.715330   -0.632504    1.096059
C      -0.836803   -2.016162    0.062179
O      -1.253615   -0.667996    0.000341
H       0.954973    1.879679    0.099183
H      -0.595482    1.852641   -0.770951
H      -0.569044    1.726591    1.002683
H       0.213124   -0.509231   -2.168432
H       1.781054   -0.481083   -1.295935
H       0.766682   -3.047847   -1.235996
H       0.846239   -2.702281    1.521915
H      -1.627403   -2.746837    0.145838
