22

C      -0.279625    1.404871   -0.264418
C      -0.358177   -0.103146   -0.453520
O      -0.051615   -0.641030   -1.502964
N      -0.790329   -0.806516    0.635055
C      -0.979138   -2.247592    0.597192
C      -2.392092   -2.668309    0.171825
C      -2.564715   -4.189115    0.157293
C      -3.954794   -4.623309   -0.287947
O      -4.006634   -6.041216   -0.240285
H       0.713186    1.743488   -0.569732
H      -1.005503    1.882656   -0.928777
H      -0.470322    1.732541    0.761047
H      -1.096026   -0.301860    1.450020
H      -0.248125   -2.642427   -0.113046
H      -0.742997   -2.655061    1.587008
H      -3.126350   -2.214336    0.851476
H      -2.585961   -2.254714   -0.824895
H      -1.827155   -4.646169   -0.513496
H      -2.377047   -4.603594    1.155977
H      -4.714517   -4.174568    0.373909
H      -4.150790   -4.250017   -1.306322
H      -4.872639   -6.321315   -0.550102
