15

O      -0.045195    0.114636   -0.795045
C      -0.079821    1.170768   -0.250080
C      -1.167801    1.986182    0.478799
C      -0.199479    3.199940    0.571201
C       0.655261    3.277815    1.852626
N       1.505156    2.175006    1.341515
C       0.963378    2.316869   -0.037955
C       1.864762    2.722711   -1.087481
N       2.588110    3.042421   -1.932078
H      -2.042945    2.149387   -0.156787
H      -1.502609    1.563262    1.429515
H      -0.529593    4.123371    0.103612
H       1.175440    4.239056    1.945014
H       0.152126    3.051609    2.798630
H       2.508345    2.283074    1.424477
