20

O      -0.021635    1.352107    0.419485
C      -0.027262    0.042593   -0.124454
C      -1.395669   -0.593876   -0.036502
C      -1.903072   -1.442478   -1.144772
N      -2.405623   -0.067312   -0.997532
C      -3.694441    0.059466   -0.271448
C      -3.466556   -0.271291    1.205876
C      -3.120831   -1.680241    1.615414
C      -2.017343   -0.688909    1.343331
H      -0.690714    1.845719   -0.069159
H       0.303800    0.041755   -1.173315
H       0.701135   -0.533411    0.457186
H      -1.287274   -1.606025   -2.026918
H      -2.568985   -2.270277   -0.920239
H      -4.026139    1.098675   -0.365518
H      -4.459049   -0.566979   -0.745530
H      -3.935447    0.372679    1.942209
H      -3.293669   -1.942480    2.654568
H      -3.295721   -2.502677    0.931418
H      -1.406833   -0.337404    2.165746
