16

O       0.031101    0.018894    0.342204
C      -0.009210    1.194340    0.107449
C      -1.280569    2.050164   -0.007728
C      -1.974689    2.278262    1.348768
O      -1.249357    3.520399    1.530667
C      -0.774028    3.492042    0.161624
C       0.740948    3.428869   -0.015422
C       1.558824    2.827948    1.064851
N       1.148017    2.012603   -0.101339
H      -1.894071    1.765040   -0.862611
H      -3.054073    2.453923    1.272855
H      -1.774154    1.548808    2.139243
H      -1.232776    4.282758   -0.439188
H       1.200440    4.094448   -0.739694
H       2.623609    3.031139    1.119395
H       1.068254    2.639607    2.014376
