13

C      -0.029983    1.431166   -0.004322
N      -0.007678   -0.027803    0.015474
N      -0.050703   -0.622969   -1.184359
N      -0.035437   -1.898409   -1.266329
C       0.025503   -2.640493   -0.109632
C       0.071295   -2.105252    1.133703
C       0.056262   -0.670733    1.278552
O       0.090959   -0.013120    2.300884
H       0.869949    1.819022    0.478121
H      -0.079683    1.743319   -1.045828
H      -0.895827    1.793042    0.554618
H       0.034244   -3.712697   -0.274726
H       0.119064   -2.707801    2.032271
