9

F       0.029440    0.105473    0.169413
C      -0.034934    1.404395    0.052572
N      -1.163211    1.985125   -0.008004
C      -1.104710    3.360945   -0.130471
N      -0.061148    4.110992   -0.189395
O       1.167666    3.452431   -0.121017
C       1.281635    2.089911    0.001480
O       2.352589    1.564186    0.057077
H      -2.050548    3.888038   -0.184864
