18

C      -0.034361    1.385593    0.048007
O       0.005938   -0.023703   -0.001813
C       0.654653   -0.517128   -1.144549
C       0.620516   -2.043820   -1.052903
N       1.266942   -2.675939   -2.190081
C       0.714244   -3.017851   -3.393485
N       1.614300   -3.517527   -4.200060
N       2.817322   -3.509677   -3.520545
C       2.586221   -3.005641   -2.336126
H       0.976860    1.820068    0.064708
H      -0.577049    1.806717   -0.812090
H      -0.555282    1.662664    0.966916
H       0.152433   -0.184294   -2.068585
H       1.699246   -0.166689   -1.198124
H       1.119762   -2.366835   -0.135879
H      -0.416662   -2.384335   -0.998949
H      -0.334504   -2.888992   -3.614083
H       3.315182   -2.865147   -1.552532
