18

C      -0.119446    1.467243   -0.020601
C      -0.042366   -0.025586    0.027255
N      -0.024551   -0.743118   -1.093462
N       0.054652   -2.023445   -0.679024
C       0.088365   -2.142744    0.668709
C       0.019807   -0.861056    1.179030
C       0.046605   -0.446773    2.601783
C      -1.188705    0.029445    3.283578
N      -0.596697   -1.271317    3.642768
H       0.787560    1.930340    0.384865
H      -0.241324    1.800420   -1.053202
H      -0.961875    1.842226    0.570614
H       0.075689   -2.757673   -1.365373
H       0.164794   -3.102785    1.155377
H       0.986694   -0.014866    2.943231
H      -1.123381    0.790953    4.055409
H      -2.109561    0.037477    2.707006
H      -1.134926   -2.008309    3.192337
