15

N      -0.355912    1.234785    0.427828
C      -0.153678    0.046547    0.063709
O       1.081644   -0.508264   -0.184240
C       0.973655   -1.777486   -0.847826
C       1.865280   -2.792633   -0.140432
O       2.306331   -3.762923   -0.695567
C      -0.501253   -2.154695   -0.774532
N      -0.963584   -2.206251    0.620687
C      -1.197042   -0.983874   -0.194170
H       0.523906    1.749394    0.496133
H       1.299488   -1.678183   -1.889089
H       2.050172   -2.567423    0.929278
H      -0.929654   -2.797403   -1.533347
H      -1.832866   -2.733203    0.668087
H      -2.201414   -0.676370   -0.451325
