17

C      -0.305858    1.542222   -0.019688
C       0.001478    0.050972    0.024369
C       1.104514   -0.587999   -0.867408
N       1.704189   -1.327088    0.307612
C       2.214205   -0.286300    1.244218
C       2.872382    0.914700    0.812046
C       3.492378    1.890644    0.477948
C       0.751759   -0.563868    1.206834
H       0.595144    2.144967    0.109517
H      -0.761454    1.811338   -0.979066
H      -1.014939    1.815119    0.769749
H      -0.926816   -0.512494   -0.114353
H       0.735681   -1.304634   -1.602607
H       1.804626    0.099972   -1.349248
H       2.719300   -0.767197    2.079953
H       4.026274    2.760103    0.183149
H       0.278830   -1.038428    2.062948
