20

C       0.044632    1.535831    0.137237
C       1.572191    1.443133   -0.121254
N       1.840061    0.896528   -1.446469
C       1.465296   -0.043471   -0.380952
C       2.179656   -1.334577   -0.106411
C       1.234815   -2.461898   -0.588514
C      -0.158291   -2.422635    0.081007
C      -0.756412   -1.032962    0.175423
C       0.006681    0.020811   -0.086040
H      -0.224787    1.817599    1.159754
H      -0.504011    2.180876   -0.558587
H       2.349043    2.017652    0.370003
H       1.080008    1.076650   -2.101775
H       3.143186   -1.380564   -0.620521
H       2.366195   -1.442672    0.969553
H       1.109132   -2.360689   -1.673560
H       1.693202   -3.440910   -0.415409
H      -0.836682   -3.090282   -0.465942
H      -0.094802   -2.846010    1.095348
H      -1.785300   -0.939507    0.514780
