21

C       0.064102    1.441473    0.093216
C      -0.004638   -0.054619    0.005590
C      -1.251526   -0.909203   -0.235430
C      -0.402026   -2.120510    0.234487
C      -1.017878   -3.351479    0.839557
C       0.584320   -1.083548    0.941450
C       1.193940   -0.900195   -0.441311
C       0.666528   -2.254668   -0.900522
O       1.579846   -3.317062   -0.721782
H       1.051071    1.775446    0.431109
H      -0.127835    1.907183   -0.880614
H      -0.678645    1.829341    0.799716
H      -2.042760   -0.661648    0.480643
H      -1.677244   -0.955058   -1.246565
H      -1.722287   -3.813799    0.137576
H      -0.251006   -4.096943    1.072814
H      -1.566712   -3.118511    1.758148
H       0.996305   -0.990287    1.936839
H       2.140318   -0.439429   -0.699723
H       0.286479   -2.362193   -1.922993
H       2.053933   -3.150937    0.102216
