18

C       0.499206    1.501739   -0.478847
C      -0.023164    0.123328   -0.144257
C       0.896945   -1.031199    0.058272
N       0.141428   -0.482418    1.182931
C       0.806455    0.247634    2.273644
C       0.522656   -0.588618    3.538789
O       0.059532   -0.142483    4.550376
C       2.250915    0.455210    2.172790
C       3.448548    0.565939    2.129256
H       1.508646    1.663802   -0.094387
H       0.523806    1.634672   -1.565507
H      -0.154454    2.280233   -0.069418
H      -1.005540   -0.088764   -0.564829
H       0.611975   -2.034586   -0.246720
H       1.963771   -0.823739    0.016892
H       0.300086    1.208201    2.416690
H       0.772021   -1.663124    3.412092
H       4.503367    0.687704    2.090371
