16

O      -0.209000    0.169873    0.524528
C       0.339620    0.724135   -0.395292
C       1.360067    1.794127   -0.198604
N       2.347720    1.977917   -1.286228
C       1.390726    3.044518   -1.038910
C       0.406788    3.336236   -2.135289
C       0.910600    3.786891   -3.457704
N       0.316194    2.449010   -3.299545
H       0.113923    0.475203   -1.452211
H       1.693237    1.891846    0.831711
H       3.263684    2.186034   -0.900941
H       1.736105    3.926202   -0.499198
H      -0.551021    3.718489   -1.788019
H       0.330302    4.486958   -4.051645
H       1.987807    3.855698   -3.588249
H       1.077028    1.773461   -3.230182
