20

C       0.025501    1.596714   -0.059658
C       0.105942    0.070204   -0.018123
C       0.750753   -0.586252   -1.233353
C       2.257614   -0.604687   -1.332895
C       1.524021   -1.803144   -0.782363
C       1.387127   -1.924956    0.727275
C       0.879190   -0.529645    1.209536
C       1.974662    0.318112    1.681619
N       2.837596    0.982509    2.071500
H       1.018836    2.046062   -0.144159
H      -0.567132    1.920235   -0.920990
H      -0.449419    1.997348    0.841828
H      -0.915550   -0.325405    0.056557
H       0.175799   -0.596583   -2.153130
H       2.677095   -0.706162   -2.327908
H       2.854253    0.012875   -0.670283
H       1.520170   -2.718565   -1.363301
H       0.627726   -2.676752    0.967512
H       2.310410   -2.218193    1.234907
H       0.197638   -0.641691    2.058388
