16

O       0.031419    1.460799   -0.017397
C       0.090959    0.056953    0.100454
C      -1.295315   -0.572555    0.027784
O      -1.870192   -0.274107   -1.259140
C      -2.429301   -1.389103   -1.828023
O      -3.005313   -1.364253   -2.868433
N      -2.225186   -2.541964   -0.999089
C      -0.781308   -2.903915   -0.961152
C      -1.380890   -2.088312    0.118932
H      -0.396574    1.657072   -0.858767
H       0.737931   -0.393324   -0.667699
H       0.532483   -0.161744    1.078828
H      -1.933453   -0.111142    0.790534
H      -0.596922   -3.960193   -0.798719
H      -0.127460   -2.427835   -1.685740
H      -1.586873   -2.531533    1.086908
