19

O       0.306821    0.043308   -0.385389
C       0.304409    1.236964   -0.389391
O       0.827389    1.972336    0.608493
C       0.811904    3.399819    0.477054
C       2.215085    3.928522    0.202533
C       2.256271    5.458659    0.152417
C       3.675859    5.996838   -0.118168
C       3.728816    7.452481   -0.169703
C       3.743518    8.653665   -0.207312
H      -0.128488    1.859421   -1.198330
H       0.117337    3.694589   -0.321115
H       0.422269    3.792037    1.421536
H       2.887304    3.555231    0.984187
H       2.574537    3.509421   -0.746040
H       1.581963    5.830755   -0.628050
H       1.893486    5.876231    1.098957
H       4.358106    5.632245    0.660884
H       4.048785    5.582906   -1.064242
H       3.770685    9.714469   -0.242634
