16

C      -0.066150    1.500709   -0.038741
C      -0.002233    0.008874    0.089206
O      -1.256380   -0.634997   -0.145170
C      -1.273662   -1.708597    0.686008
N      -0.269769   -1.913403    1.440183
C       0.659686   -0.849965    1.133685
C       1.236199   -0.799242   -0.295748
C       1.232197   -1.951746   -1.227047
O       2.073992   -2.106366   -2.080358
H       0.896006    1.942232    0.232406
H      -0.299541    1.796229   -1.066159
H      -0.835885    1.908819    0.623180
H      -2.167826   -2.316925    0.629496
H       1.281455   -0.492439    1.945448
H       2.126838   -0.186521   -0.390960
H       0.411097   -2.684092   -1.098591
