10

O       0.017564    0.011566   -0.072124
C      -0.044920    1.202060   -0.037829
C      -1.263642    2.105650    0.118855
O      -0.782615    3.401621   -0.180781
C       0.604899    3.371559    0.048226
O       1.036308    2.024952   -0.134360
H      -2.055506    1.830951   -0.580946
H      -1.651721    2.026213    1.145960
H       1.105537    4.012025   -0.681935
H       0.857835    3.682525    1.073708
