13

C      -0.023061    1.480413    0.028566
C       0.003600   -0.017356   -0.016666
N      -0.033798   -0.608015   -1.179637
C      -0.009636   -1.989786   -1.238321
O      -0.038676   -2.661054   -2.240315
N       0.055974   -2.626552    0.034574
C       0.090585   -1.925038    1.181185
N       0.067424   -0.629497    1.223416
H       0.871436    1.849018    0.541526
H      -0.075303    1.893402   -0.977788
H      -0.881995    1.815625    0.619241
H       0.075134   -3.637358    0.028152
H       0.140353   -2.499000    2.104699
