21

C      -0.527440    1.141680    0.299976
O       0.410086    0.152502   -0.074582
C       0.927085   -0.542112    1.010280
C       0.147809   -1.648039    1.713038
C      -1.001606   -2.218462    0.954475
C      -0.611592   -2.793943   -0.183719
C       0.896935   -2.791542   -0.351300
C       1.392788   -2.312371   -1.725488
C       1.377694   -1.960222    0.847815
H      -0.082967    1.879748    0.984945
H      -0.841867    1.650943   -0.613902
H      -1.405871    0.697515    0.788148
H       1.538644    0.077114    1.671040
H       0.163646   -1.683383    2.797492
H      -2.027120   -2.124770    1.294072
H      -1.270743   -3.220238   -0.932466
H       1.262127   -3.821105   -0.212551
H       1.065663   -1.289985   -1.920010
H       2.486334   -2.339633   -1.773283
H       1.010855   -2.962261   -2.520484
H       2.326860   -2.227155    1.298977
