22

C      -0.096934    1.581019   -0.102359
C      -0.020094    0.073823    0.007421
C       1.275316   -0.662717   -0.238843
C       0.677361   -0.636253    1.151295
C       1.350105    0.101501    2.266893
C       0.752134    0.127993    3.657024
C       2.047533   -0.608574    3.410784
C       2.124346   -2.115770    3.520585
H       0.833238    2.063021    0.211865
H      -0.285287    1.884260   -1.138364
H      -0.905335    1.987543    0.515792
H      -0.913688   -0.430348   -0.353315
H       1.262353   -1.590021   -0.801720
H       2.162994   -0.058753   -0.404880
H       0.193771   -1.557945    1.462193
H       1.833717    1.023179    1.955990
H       0.765106    1.055303    4.219889
H      -0.135556   -0.475955    3.823057
H       2.941133   -0.104415    3.771523
H       1.194167   -2.597760    3.206361
H       2.932744   -2.522317    2.902445
H       2.312686   -2.419000    4.556595
