17

O      -0.179524    1.320523    0.287111
N       0.004663   -0.073198    0.186805
C      -1.093269   -0.658075   -0.078077
C      -2.468582   -0.035058   -0.228955
C      -3.393129   -1.227238   -0.541638
C      -2.674228   -2.443324    0.060428
O      -3.173355   -3.629707   -0.525837
C      -1.184764   -2.156919   -0.229793
H       0.709698    1.626460    0.493992
H      -2.736973    0.466872    0.708532
H      -2.475445    0.742129   -0.998419
H      -4.407916   -1.106578   -0.156505
H      -3.466940   -1.388915   -1.622942
H      -2.831956   -2.454613    1.151476
H      -2.756571   -4.380279   -0.091463
H      -0.986220   -2.449472   -1.270095
H      -0.480923   -2.693181    0.411206
