14

O      -0.157827    0.142594   -0.382792
C       0.091492    1.191403    0.159482
C       1.401931    1.853870    0.083430
C       2.096744    2.565185    1.212302
C       3.546791    2.499801    0.655190
O       3.728323    1.219149    0.023749
C       2.623625    1.595701   -0.826988
C       2.891048    3.110499   -0.612037
N       1.546948    3.368673    0.094025
H      -0.666332    1.748450    0.752963
H       1.714364    2.629773    2.223388
H       4.396511    2.858816    1.230517
H       2.532161    1.031141   -1.750194
H       3.304968    3.830200   -1.312913
