20

C      -0.147709    1.543423    0.077711
C      -0.271287    0.028512   -0.080513
O       0.976863   -0.620561    0.161530
C      -1.387139   -0.559173    0.798191
C      -1.552844   -2.048071    0.603276
O      -2.691975   -2.670473    1.210670
C      -2.600183   -2.681522   -0.218916
C      -3.668467   -1.949207   -0.990265
H       0.670976    1.922161   -0.540046
H      -1.071479    2.051476   -0.217090
H       0.058809    1.809183    1.122286
H      -0.491281   -0.203197   -1.130189
H       1.256999   -0.389167    1.054571
H      -1.143974   -0.368023    1.853975
H      -2.328364   -0.037000    0.602179
H      -0.625643   -2.607653    0.728606
H      -2.358767   -3.666253   -0.626516
H      -3.885485   -0.968553   -0.562317
H      -3.363437   -1.817754   -2.034368
H      -4.597918   -2.528440   -0.985588
