13

O      -0.024927    1.322145    0.009432
N       1.299343    1.814582   -0.000398
C       2.094019    0.783825   -0.013745
C       1.361629   -0.449880   -0.013566
C       0.030103   -0.021059    0.001460
C      -1.013789   -0.938747    0.006302
C      -0.614643   -2.267601   -0.004846
C       0.753109   -2.610210   -0.019738
N       1.749935   -1.730436   -0.024342
H       3.163518    0.938048   -0.023074
H      -2.054181   -0.637670    0.017860
H      -1.355329   -3.059308   -0.002188
H       1.038386   -3.658753   -0.028256
