18

C      -0.027165    1.516798    0.030443
N      -0.011939    0.070999    0.123560
C      -1.266678   -0.631024    0.455612
C      -0.444784   -1.637218    1.296377
C       0.679224   -0.573216    1.253216
C       2.108340   -1.057352    0.967764
C       3.063933    0.040943    0.838735
N       3.802268    0.925384    0.744734
H       0.989112    1.892488   -0.116576
H      -0.628871    1.821389   -0.832179
H      -0.449295    2.000730    0.931221
H      -1.945364   -0.029096    1.082024
H      -1.826051   -1.008991   -0.406210
H      -0.832575   -1.908470    2.278102
H      -0.186414   -2.542779    0.742393
H       0.680620    0.048655    2.164070
H       2.442500   -1.717393    1.777232
H       2.109213   -1.638813    0.039943
