14

N      -0.011675    1.499882   -0.039484
C      -0.039784    0.114715   -0.054946
C      -0.965615   -0.819976    0.299672
C      -0.320217   -2.097985    0.135291
C       0.928773   -1.828141   -0.303191
O       1.978829   -2.596650   -0.686021
C       2.707698   -3.197284    0.313212
O       3.616055   -3.923682    0.075308
O       1.128587   -0.478801   -0.421420
H       0.556092    1.891182   -0.780821
H      -0.935950    1.908419   -0.041280
H      -1.975290   -0.635592    0.628215
H      -0.742113   -3.076743    0.296578
H       2.323906   -2.924649    1.312061
