25

C       0.120988    1.423265    0.104109
O      -0.062262    0.039738   -0.071604
C       0.658992   -0.531061   -1.160703
C       2.146550   -0.690664   -0.833790
C      -0.003138   -1.871981   -1.475230
C      -1.473173   -1.749725   -1.883364
C      -2.111314   -3.095430   -2.246993
C      -3.597592   -2.964650   -2.580470
O      -1.403676   -3.744237   -3.305771
H       1.146724    1.684289    0.403538
H      -0.121340    1.986211   -0.811631
H      -0.559073    1.740117    0.899424
H       0.554719    0.132683   -2.038164
H       2.274483   -1.339835    0.038328
H       2.677514   -1.138646   -1.679605
H       2.620865    0.270845   -0.617404
H       0.554781   -2.370032   -2.274720
H       0.079813   -2.512508   -0.587168
H      -2.039118   -1.283461   -1.070285
H      -1.563925   -1.074931   -2.749371
H      -1.997651   -3.779048   -1.395627
H      -3.747280   -2.279456   -3.424906
H      -4.014032   -3.938142   -2.853419
H      -4.161710   -2.569138   -1.729685
H      -1.518422   -3.207892   -4.098556
