15

C      -0.051396    1.564058   -0.005884
C       1.454257    1.891867   -0.031905
O       2.174287    1.454706    1.118838
C       2.262675    0.649272   -0.080030
C       1.274677   -0.452567   -0.064145
N       1.327470   -1.774518   -0.078988
N       0.022016   -2.122684    0.007826
C      -0.834905   -1.058905    0.078249
C      -0.038494    0.058377    0.022383
H      -0.529234    2.019688    0.868259
H      -0.544582    1.969694   -0.897352
H       1.793684    2.830712   -0.462668
H       3.246710    0.574936   -0.529827
H      -0.218672   -3.099202    0.002373
H      -1.901051   -1.207405    0.146618
