19

C      -0.235573    1.555535   -0.020479
C      -0.025487    0.072162   -0.006689
C      -0.005327   -0.786279   -1.086968
N       0.215274   -2.028883   -0.595902
N       0.342892   -2.047807    0.744457
C       0.198235   -0.774806    1.114818
C       0.274221   -0.373948    2.535860
C      -0.256416   -1.291010    3.620660
C       1.223101   -1.082717    3.482775
H       0.621544    2.094319    0.400071
H      -0.382110    1.921051   -1.040841
H      -1.116455    1.849684    0.562035
H      -0.129395   -0.604770   -2.143522
H       0.289527   -2.891918   -1.105454
H       0.139779    0.689718    2.700334
H      -0.769731   -0.838996    4.462494
H      -0.662775   -2.239116    3.287890
H       1.806150   -1.891543    3.057778
H       1.736795   -0.486135    4.228897
