20

O      -0.076463    1.413436    0.133386
C      -0.016262    0.006936   -0.066551
C      -1.428090   -0.523280   -0.024123
C      -2.164943   -0.516306    1.341001
N      -2.583020   -1.952384    1.190418
C      -3.123952   -2.117961   -0.194033
C      -3.636294   -0.900536   -0.956500
C      -2.381118   -0.000904   -1.111618
C      -1.663279   -2.059061    0.001792
H       0.821240    1.757837    0.132882
H       0.443217   -0.238480   -1.039233
H       0.588432   -0.480576    0.715240
H      -1.487158   -0.443894    2.195199
H      -2.984592    0.197925    1.476070
H      -3.623019   -3.074213   -0.311048
H      -4.048727   -1.202345   -1.923794
H      -4.444076   -0.398172   -0.413108
H      -2.593511    1.063894   -0.985955
H      -1.928497   -0.138467   -2.101229
H      -0.943876   -2.861290   -0.122052
