20

C       0.011290    1.630668   -0.524813
C       0.052260    0.178956   -0.085093
C       1.186912   -0.702557   -0.563858
N       1.171796   -0.173675    0.773504
C       1.299372   -0.857966    1.957905
O       1.989355   -1.837778    2.120663
C      -1.307917   -0.441149    0.102337
C      -1.575136   -1.683415    0.908825
C      -2.072476   -0.345858    1.401243
H       1.021212    2.025445   -0.657292
H      -0.530033    1.728461   -1.471768
H      -0.504708    2.243926    0.221013
H       0.991756   -1.766592   -0.672712
H       1.940597   -0.294892   -1.233400
H       0.758257   -0.357518    2.783764
H      -1.912220   -0.332279   -0.795498
H      -2.299779   -2.386572    0.513667
H      -0.757634   -2.154573    1.441854
H      -1.568213    0.093730    2.255474
H      -3.135791   -0.137811    1.360846
