17

C      -0.047907    1.514987   -0.170658
C      -0.047678    0.017718    0.167842
C      -1.391848   -0.609279   -0.014514
O      -2.466895   -0.155306    0.875732
C      -2.849812   -1.487330    1.102929
O      -3.647770   -1.868008    1.892947
C      -1.907553   -2.049062    0.090751
C      -2.051265   -1.194232   -1.202277
O      -3.248656   -0.748889   -1.723205
H       0.944471    1.944984   -0.010420
H      -0.327603    1.683943   -1.215143
H      -0.758875    2.053548    0.461967
H       0.665308   -0.517419   -0.470136
H       0.274658   -0.135558    1.204551
H      -1.409714   -3.007619    0.120620
H      -1.389726   -1.547701   -1.988965
H      -3.648254   -0.160245   -1.068743
