23

C      -0.702402    1.249565    0.329295
C       0.186654    0.076870   -0.091212
C       0.781774   -0.675524    1.098569
O      -0.298894   -1.184855    1.867462
C       1.709658   -1.820799    0.647245
C       2.432090   -2.511501    1.796396
O       1.774431   -2.573220    3.086482
C       2.020668   -3.801471    2.382097
C       0.811186   -4.575146    1.926044
H      -0.129099    1.999290    0.886475
H      -1.140129    1.745194   -0.542625
H      -1.512694    0.901709    0.973982
H      -0.395168   -0.636316   -0.689196
H       1.006297    0.432533   -0.727666
H       1.372146    0.036157    1.702546
H       0.103762   -1.644722    2.617780
H       1.106962   -2.535448    0.077019
H       2.469588   -1.426180   -0.036635
H       3.484510   -2.246225    1.899553
H       2.805557   -4.402310    2.844556
H       0.033713   -3.902195    1.558058
H       1.081888   -5.279383    1.131616
H       0.397001   -5.153500    2.758237
