21

C       0.019097    1.259995    0.260096
C      -0.221825   -0.189739   -0.180009
C       0.666374   -0.598112   -1.335631
O       0.405283    0.031775   -2.565665
C       2.119311   -0.979882   -1.079253
O       2.606389   -1.041773    0.226593
C       1.131352   -2.031026   -1.518347
O       0.872306   -2.988857   -0.541260
C      -0.359596   -3.669105   -0.714700
H       1.046931    1.387868    0.612086
H      -0.155004    1.960644   -0.564420
H      -0.657677    1.542019    1.072070
H      -0.042744   -0.862610    0.662524
H      -1.267425   -0.319055   -0.485013
H       0.768015    0.923857   -2.524478
H       2.857170   -0.642908   -1.804162
H       2.352110   -1.906116    0.575220
H       1.173910   -2.404426   -2.541608
H      -0.437989   -4.400140    0.093094
H      -1.211715   -2.979620   -0.665949
H      -0.386851   -4.195238   -1.679136
