17

C      -0.471753    1.514085   -0.032248
C      -0.001393    0.067298    0.004642
C       1.180726   -0.357212   -0.961513
C       2.039994   -0.472025    0.298069
O       2.339588    0.909143    0.796418
C       1.938372    0.224919    2.015087
C       0.812150   -0.486900    1.259930
C       2.913889   -0.965810    1.503590
O       3.740545   -1.734007    1.843377
H       0.366465    2.205768    0.056392
H      -0.999549    1.720725   -0.970220
H      -1.168582    1.710693    0.789743
H      -0.859109   -0.596285   -0.132170
H       0.998807   -1.316423   -1.450398
H       1.529542    0.375026   -1.692248
H       1.973350    0.777182    2.954556
H       0.436634   -1.426959    1.668814
