15

C      -0.190180    1.388813   -0.005609
N       0.055918   -0.042834    0.007082
N       0.214372   -0.638227   -1.193207
C       0.541150   -1.890718   -1.196215
C       0.754406   -2.665619    0.007205
C       0.592750   -1.875010    1.217249
N       0.265684   -0.619532    1.196881
N       1.059144   -3.919182   -0.091218
O       1.230746   -4.486289    1.185939
H       0.741274    1.950214   -0.144023
H      -0.869963    1.620395   -0.826323
H      -0.638412    1.663568    0.948428
H       0.655054   -2.361067   -2.167585
H       0.743996   -2.318725    2.191941
H       1.444803   -5.400108    0.973407
