17

O      -0.840430    1.022689    0.367807
C       0.246170    0.717807   -0.045817
C       1.442836    1.659920   -0.021940
O       2.610695    0.870765   -0.196243
C       3.745456    1.678193   -0.390698
O       3.736049    2.313775   -1.640691
C       2.575714    3.070603   -1.871716
C       1.439233    2.377849   -2.572344
C       1.322391    2.726107   -1.102345
H       0.461353   -0.273687   -0.500264
H       1.464181    2.155618    0.961866
H       3.813554    2.420747    0.423947
H       4.616421    1.020993   -0.381477
H       2.792212    4.110851   -2.098317
H       0.831551    2.936811   -3.274555
H       1.622904    1.342981   -2.838015
H       0.654992    3.539201   -0.839364
