18

O       0.120824    1.420214   -0.187537
C       0.022040    0.037967   -0.021848
C       0.316116   -0.590513    1.411914
O       0.664657    0.258051    2.463714
C      -1.105201   -1.243701    1.403617
C      -2.272897   -0.406414    1.966708
N      -1.975863    1.033135    1.708798
C      -2.548079    0.181577    0.625076
C      -1.394768   -0.624858   -0.008297
H      -0.444559    1.810646    0.493152
H       0.666187   -0.411769   -0.783078
H       1.103815   -1.347109    1.350681
H      -0.031525    0.928067    2.506622
H      -1.187725   -2.314071    1.588607
H      -2.944610   -0.666256    2.775417
H      -2.739863    1.577977    2.104281
H      -3.480651    0.479132    0.161940
H      -1.689042   -1.242634   -0.855929
