20

C      -0.076125    1.541448    0.124196
C       0.031595    0.015230    0.094563
C       0.744402   -0.514211   -1.148986
N       2.164719   -0.140534   -1.258807
C       3.042113   -0.832880   -0.302904
C       2.925783   -1.344216   -1.691276
C       1.997102   -2.520798   -1.901272
C       0.664153   -2.044677   -1.307278
O      -0.280577   -2.734342   -1.026500
H       0.913327    2.006185    0.091443
H      -0.645161    1.912532   -0.735391
H      -0.583925    1.880074    1.032350
H       0.555396   -0.340970    0.989899
H      -0.961323   -0.446721    0.117440
H       0.243671   -0.096154   -2.037104
H       3.916135   -0.266348    0.003391
H       2.592323   -1.426802    0.492273
H       3.722326   -1.165609   -2.406803
H       1.845519   -2.735213   -2.966439
H       2.319697   -3.450469   -1.425383
