20

C      -0.022400    1.659800   -0.182316
C      -0.063399    0.153199   -0.020234
C      -1.389615   -0.480592   -0.415615
O      -1.727585   -0.235440   -1.772249
C       1.186015   -0.652057   -0.195687
N       0.565748   -0.514979    1.122163
C       1.265230    0.256615    2.135051
C       2.002348   -0.682010    3.080070
O       2.991764   -0.380076    3.693374
H       0.981283    2.072476   -0.061628
H      -0.384154    1.918706   -1.180846
H      -0.684705    2.146902    0.543236
H      -1.355194   -1.553975   -0.183295
H      -2.201651   -0.040878    0.174827
H      -1.058755   -0.659773   -2.320089
H       1.159625   -1.649901   -0.629099
H       2.109111   -0.104068   -0.380556
H       1.981498    1.001543    1.760012
H       0.522391    0.794399    2.742597
H       1.530335   -1.685506    3.168497
