21

C      -0.144190    1.574501    0.166880
C       0.133889    0.079836   -0.032586
C       0.838696   -0.547705    1.157969
C       0.010226   -0.938771    2.416494
O      -0.601382   -2.053044    1.660581
C       0.838670   -2.095805    1.312106
C       1.131568   -1.955406    2.820433
O       2.404414   -1.539522    3.196662
C       2.513423   -1.250882    4.576629
H       0.781851    2.133512    0.342414
H      -0.631716    2.006243   -0.712519
H      -0.801247    1.745384    1.026599
H      -0.801120   -0.457776   -0.215618
H       0.760154   -0.056936   -0.923855
H       1.798900   -0.074808    1.381258
H      -0.654473   -0.336345    3.037115
H       1.165116   -2.868359    0.614792
H       0.755652   -2.788750    3.426830
H       1.875823   -0.404194    4.869771
H       2.239282   -2.120619    5.192100
H       3.556533   -0.992876    4.771460
