22

C       0.051460    1.581343    0.142803
C      -0.009804    0.049097    0.003499
C       0.676654   -0.475134   -1.226421
C       0.086455   -0.775562   -2.440105
C      -1.334213   -0.698667   -2.896316
N       1.083500   -1.201193   -3.287048
C       2.294196   -1.180729   -2.638296
C       2.083643   -0.734219   -1.356226
C       3.128416   -0.568169   -0.293680
H       1.087491    1.933472    0.172453
H      -0.436129    2.069276   -0.707270
H      -0.445412    1.916655    1.059786
H       0.441130   -0.405584    0.894802
H      -1.060135   -0.266105    0.009464
H      -1.495063    0.097979   -3.634661
H      -1.669207   -1.637978   -3.354443
H      -1.995619   -0.494521   -2.051238
H       0.940520   -1.498253   -4.236130
H       3.200323   -1.491310   -3.134637
H       3.245215    0.477602    0.016566
H       2.886029   -1.139783    0.610816
H       4.104707   -0.914176   -0.646568
