19

C       0.014279    1.542182    0.047389
C       0.048678    0.026289    0.052628
C      -1.181222   -0.631586   -0.551601
C       1.315439   -0.738558   -0.150257
O       2.450644   -0.002539    0.378548
C       1.926908   -0.104128    1.668156
N       2.433031    0.189551    2.777042
C       0.660440   -0.779708    1.228627
N      -0.062232   -1.792410    1.906570
H       0.943145    1.975858    0.420642
H      -0.143780    1.911780   -0.971973
H      -0.811311    1.910419    0.665829
H      -1.319254   -0.282887   -1.580797
H      -1.103550   -1.720315   -0.554289
H      -2.081040   -0.367287    0.014108
H       1.521929   -1.509193   -0.881031
H       3.368545    0.584680    2.667079
H       0.568931   -2.395296    2.425273
H      -0.706043   -1.386924    2.578982
