19

O       0.045639    1.341954   -0.376661
C       0.060337    0.025036    0.153328
C      -1.329066   -0.547159    0.247200
C      -2.363401    0.042814    1.204949
C      -3.391274   -1.065998    1.456938
C      -4.212910   -1.604761    0.316385
C      -2.944541   -2.319427    0.719522
C      -1.695389   -1.945641   -0.044361
O      -1.885249   -0.921568   -1.036010
H      -0.369682    1.283711   -1.244756
H       0.685499   -0.647025   -0.453267
H       0.510977    0.102129    1.148518
H      -1.865179    0.310828    2.143401
H      -2.803458    0.959986    0.801482
H      -3.813094   -1.138084    2.453242
H      -5.151791   -2.084363    0.571592
H      -4.204948   -1.078677   -0.630048
H      -2.991178   -3.305713    1.165084
H      -0.967977   -2.709927   -0.306237
