21

C      -0.034454    1.303013   -0.145525
C       1.483667    1.476348    0.035534
C       1.410118    0.105155    0.764481
O       0.012304   -0.040306    0.377607
C       2.265564   -1.017533    0.293404
C       3.154378   -1.689043    1.030169
C       3.899421   -2.730078    0.231720
C       3.053032   -2.837401   -1.063623
C       2.250587   -1.514369   -1.139727
H      -0.650593    1.962894    0.479879
H      -0.418176    1.330608   -1.171703
H       2.051980    1.452279   -0.895816
H       1.818316    2.320219    0.640268
H       1.495606    0.205644    1.855250
H       3.354035   -1.496922    2.079740
H       4.927072   -2.397182    0.024306
H       3.990336   -3.687601    0.756865
H       3.659372   -3.019260   -1.954505
H       2.356693   -3.676512   -0.969111
H       1.232157   -1.652226   -1.514369
H       2.734159   -0.787169   -1.808302
