17

C      -0.039355    1.412832    0.094367
N       0.011327   -0.000994   -0.186887
C      -1.174556   -0.846144    0.038482
C      -0.639448   -2.294936   -0.103559
C       0.864473   -2.102176   -0.011203
C       1.840389   -3.152330    0.055362
O       1.584422   -4.344927    0.082868
C       1.127842   -0.771590   -0.073343
H       0.930206    1.867619   -0.122861
H      -0.792644    1.898082   -0.535535
H      -0.293366    1.619148    1.146530
H      -1.568599   -0.655725    1.048785
H      -1.964085   -0.597739   -0.677410
H      -1.029755   -2.962179    0.668466
H      -0.917364   -2.732702   -1.069450
H       2.897063   -2.795127    0.090198
H       2.102167   -0.295983   -0.068430
