20

O      -0.007135    1.502447    0.035649
C       0.050789    0.097289    0.087172
C      -0.112805   -0.629404    1.470347
C      -1.587485   -0.129473    1.456337
C      -1.316843   -0.620022    0.001765
C      -0.631299   -1.859487    0.650363
N       0.226968   -2.704472   -0.164702
C       1.669486   -2.723195    0.069100
C       0.819218   -3.868073    0.485132
H       0.879874    1.843990    0.181901
H       0.833675   -0.287195   -0.572700
H       0.575706   -0.624423    2.318112
H      -2.305079   -0.709200    2.043125
H      -1.725411    0.942258    1.578833
H      -2.004911   -0.620947   -0.843846
H      -1.332858   -2.495935    1.197756
H       2.290140   -2.785121   -0.821184
H       2.072115   -2.095309    0.861109
H       0.652386   -3.996316    1.554155
H       0.805304   -4.790103   -0.090138
