19

O      -0.055662    1.364233   -0.127358
C      -0.054517   -0.031140   -0.072735
C      -0.445136   -0.741239    1.214186
C      -1.388709   -0.711022    0.050933
C      -2.695373    0.075510   -0.000373
C      -3.584190   -0.772756   -0.930677
O      -4.308198    0.068139   -1.810340
C      -2.551772   -1.680611   -1.629286
O      -1.564348   -1.930457   -0.641306
H       0.667141    1.688326    0.420217
H       0.682306   -0.530256   -0.701818
H       0.045312   -1.681920    1.440486
H      -0.695789   -0.124326    2.071591
H      -3.144441    0.209964    0.986116
H      -2.543696    1.062950   -0.442571
H      -4.268679   -1.392920   -0.334967
H      -4.937608   -0.474190   -2.295710
H      -2.946845   -2.644816   -1.961268
H      -2.138012   -1.140740   -2.496002
