18

C       0.066962    1.423273   -0.424121
N       0.037337    0.006093   -0.065445
C      -1.123961   -0.437039    0.815543
C      -0.771954   -1.920285    0.949509
C       0.545265   -1.890532    1.175906
C       0.856400   -0.392310    1.155839
C      -0.324291    0.130333    2.022766
C      -0.497855    1.297396    2.879439
O      -0.555229   -0.051867    3.390647
H       1.036716    1.642371   -0.883303
H      -0.702460    1.603038   -1.182375
H      -0.090599    2.137058    0.398259
H      -2.133041   -0.129881    0.544064
H      -1.455337   -2.752904    0.880763
H       1.248232   -2.691836    1.345438
H       1.883737   -0.039160    1.234283
H       0.367000    1.877811    3.198744
H      -1.444259    1.836903    2.887499
