17

C      -0.033495    1.476051    0.036316
O       1.419604    1.476871    0.111010
C       1.482178    0.083001   -0.311417
C       2.237329   -0.909043    0.571716
C       1.575902   -2.284864    0.401424
O       0.713801   -2.731031    1.451963
C       0.116383   -2.386370    0.184741
C      -0.679424   -1.123542    0.165758
C      -0.005746   -0.021907   -0.126913
H      -0.502264    1.870034    0.945370
H      -0.393644    2.045780   -0.831701
H       1.824666    0.024037   -1.354978
H       3.302244   -0.957926    0.326906
H       2.138720   -0.598408    1.615242
H       2.206004   -3.072982   -0.009554
H      -0.278029   -3.246320   -0.356129
H      -1.723037   -1.138768    0.465093
