19

C       0.185401    1.332501   -0.445622
C       0.025774   -0.061396    0.174556
O       0.561331   -0.082903    1.491658
C      -1.413435   -0.567314    0.117313
C      -2.077158   -0.978916    1.273785
C      -3.392374   -1.437422    1.216764
C      -4.061389   -1.500942   -0.001176
C      -3.402344   -1.108333   -1.164988
C      -2.091738   -0.646563   -1.104515
H       1.230888    1.646611   -0.382997
H      -0.120824    1.350527   -1.494730
H      -0.433680    2.061633    0.091085
H       0.658060   -0.764929   -0.382565
H       0.156441    0.641064    1.982763
H      -1.547683   -0.958031    2.218778
H      -3.890624   -1.751778    2.128381
H      -5.084384   -1.859325   -0.046912
H      -3.909858   -1.163009   -2.122778
H      -1.589992   -0.353119   -2.021755
