23

C       0.001030    1.545689    0.031053
C      -0.048092    0.011298   -0.024000
C      -1.503063   -0.481472   -0.029951
C       0.745978   -0.541831   -1.221963
O       0.108271   -0.033038   -2.398612
C       2.250600   -0.133877   -1.238112
C       2.922845   -1.305879   -1.911688
C       2.128297   -2.376519   -1.944012
C       0.792731   -2.098332   -1.297423
H       1.025805    1.918345    0.122428
H      -0.433908    1.975178   -0.875485
H      -0.564554    1.916724    0.891785
H       0.444058   -0.380970    0.876614
H      -2.014046   -0.154452   -0.939563
H      -1.564641   -1.572965    0.017343
H      -2.046918   -0.081177    0.831675
H       0.596410   -0.372436   -3.157032
H       2.384512    0.817191   -1.763546
H       2.642734    0.005626   -0.220742
H       3.940146   -1.267024   -2.285631
H       2.397067   -3.346299   -2.348405
H       0.743666   -2.553331   -0.298004
H      -0.062994   -2.480784   -1.863120
