15

C       0.102731    1.441633   -0.095008
N       0.009410   -0.003779   -0.080620
C      -0.205553   -0.851823   -1.155657
N      -0.245835   -2.106562   -0.903642
C      -0.000431   -2.214242    0.541034
C       1.240068   -3.091958    0.755751
O       2.187247   -2.793826    1.426179
C       0.134600   -0.783855    1.073184
O       0.297982   -0.374105    2.193106
H       0.951135    1.779104   -0.698460
H      -0.815575    1.893942   -0.481959
H       0.250890    1.759654    0.938755
H      -0.333981   -0.431294   -2.148401
H      -0.841737   -2.722950    1.031648
H       1.178690   -4.048250    0.195890
