21

C       0.026516    1.421174    0.003461
C      -0.026922   -0.089997    0.032146
O       1.031665   -0.564482   -0.765772
C       1.115430   -1.957759   -1.032721
C      -0.244104   -2.643653   -1.195156
C      -1.174983   -2.251031   -0.046497
C      -0.522272   -2.216659    1.377590
C      -0.520368   -0.688069    1.333282
C      -1.374952   -0.722548    0.035144
H       0.977950    1.776545    0.410934
H      -0.056516    1.781363   -1.026302
H      -0.787619    1.853592    0.591050
H       1.705162   -2.046258   -1.950779
H       1.687560   -2.453250   -0.234792
H      -0.703367   -2.354421   -2.148477
H      -0.083285   -3.727990   -1.225178
H      -2.106057   -2.819393   -0.074978
H      -1.229737   -2.579062    2.128084
H       0.430317   -2.732216    1.529916
H      -0.644684   -0.054339    2.205357
H      -2.286715   -0.191948   -0.217515
