25

C      -0.024683    1.539239    0.166162
C       0.301858    0.063341    0.010787
O       0.364710   -0.521186    1.297690
C       0.634624   -1.896560    1.281095
C       2.087207   -2.383953    1.007318
C       1.904246   -3.405579    2.166413
C       3.073711   -3.669241    3.106386
C       2.712632   -4.592439    4.274430
C       0.707309   -2.546989    2.674500
H       0.747509    2.042671    0.754907
H      -0.085764    2.023229   -0.813268
H      -0.982358    1.667548    0.678716
H      -0.468908   -0.441940   -0.596315
H       1.260891   -0.064971   -0.517119
H      -0.081784   -2.418130    0.626018
H       2.336105   -2.766970    0.014638
H       2.801013   -1.599901    1.282212
H       1.534477   -4.358186    1.767735
H       3.904050   -4.105838    2.535067
H       3.441777   -2.710098    3.494908
H       1.904244   -4.167603    4.879354
H       2.376647   -5.571779    3.915409
H       3.570578   -4.756274    4.933903
H       1.038490   -1.803514    3.407004
H      -0.183992   -3.051435    3.053576
