20

C       0.054147    0.897324    0.208560
O      -0.351778    0.247301   -0.992240
C       0.449264   -0.741011   -1.420616
N       0.152181   -1.398727   -2.454624
C       1.051746   -2.434243   -2.893125
C       1.723584   -3.429915   -1.971082
C       0.574791   -3.860586   -2.864974
C      -0.791117   -4.130187   -2.263904
O      -1.833262   -3.612543   -3.069679
H       0.053796    0.204031    1.057807
H       1.049463    1.345201    0.104642
H      -0.675956    1.686312    0.390515
H       1.348621   -0.908280   -0.811576
H       1.606624   -2.140258   -3.780722
H       2.729362   -3.759632   -2.207952
H       1.517701   -3.367923   -0.907033
H       0.816003   -4.462243   -3.736081
H      -0.966269   -5.208121   -2.180350
H      -0.833968   -3.717220   -1.243607
H      -1.670187   -2.660653   -3.122160
