20

C      -0.104360    1.547674   -0.009858
C      -0.034575    0.028275   -0.001369
C       1.198592   -0.669749   -0.669228
C       1.701225   -0.577928   -2.076164
N       2.008054   -0.173763    0.540774
C       0.705959   -0.682034    1.182289
C       0.442672   -0.609319    2.654000
C       0.887768   -1.883873    0.231352
O       0.967897   -3.076504    0.244759
H       0.858329    1.990363    0.249290
H      -0.401093    1.912152   -0.999229
H      -0.854815    1.900836    0.705572
H      -0.996811   -0.424172   -0.260394
H       1.913997    0.459521   -2.351909
H       2.617659   -1.163073   -2.203840
H       0.953082   -0.973270   -2.770421
H       2.787914   -0.807230    0.744069
H       0.486854    0.423925    3.011857
H      -0.550246   -1.010775    2.879726
H       1.176424   -1.199015    3.212940
