19

O      -0.064420    1.402989   -0.018382
C       0.012764    0.015071    0.015603
C       0.357936   -0.794794    1.305419
C      -0.405694   -1.917055    0.573956
C      -1.311563   -0.825404   -0.043396
O      -1.778430   -1.233213   -1.313647
C      -0.908238   -2.301208   -1.727928
C       0.301806   -2.152129   -0.799946
C       0.868425   -0.718814   -1.038425
H       0.826089    1.760296   -0.103936
H       1.412906   -0.948201    1.548205
H      -0.184001   -0.429114    2.180788
H      -0.809915   -2.788763    1.085519
H      -2.128443   -0.425789    0.557394
H      -1.415253   -3.269812   -1.603040
H      -0.660854   -2.169589   -2.786638
H       1.023779   -2.967581   -0.853930
H       0.680739   -0.357284   -2.053119
H       1.938794   -0.632407   -0.823884
