18

O       0.045156    1.473316   -0.123478
C       0.062035    0.063341    0.055736
C      -1.331439   -0.521994    0.065673
C      -2.263186   -0.298222    1.294030
C      -2.576583   -1.823687    1.332785
C      -1.653189   -2.058742    0.095896
C      -2.408284   -1.810039   -1.221469
O      -3.112046   -2.451635   -1.952185
N      -2.029573   -0.471947   -1.233128
H      -0.188989    1.643035   -1.041794
H       0.662526   -0.434813   -0.719698
H       0.545885   -0.114311    1.021922
H      -1.729119    0.059168    2.177234
H      -3.108848    0.367630    1.110850
H      -2.198457   -2.313080    2.232010
H      -3.618107   -2.119752    1.193018
H      -0.907397   -2.850977    0.130286
H      -2.554042    0.295907   -1.634688
