17

C       0.045205    1.519224    0.042557
C       0.003461    0.021671   -0.014108
C      -0.130314   -0.675831   -1.145960
N      -0.170269   -2.074562   -1.163746
C       0.127676   -2.871041   -0.072565
O       0.360645   -4.051324   -0.178852
N       0.081278   -2.215505    1.181993
C       1.279516   -1.524780    1.667952
C       0.064103   -0.748742    1.255475
H       0.988183    1.880640    0.472672
H      -0.061170    1.959070   -0.952941
H      -0.759578    1.917709    0.674279
H      -0.207553   -0.206815   -2.120246
H      -0.189536   -2.562854   -2.044717
H       1.505588   -1.680685    2.718778
H       2.142048   -1.486723    1.007802
H      -0.567353   -0.371038    2.060712
