23

C      -0.015197    1.558433   -0.086020
C      -0.185853    0.055358   -0.319244
C       1.088101   -0.596005   -0.865839
N       0.935780   -2.025204   -1.080004
C       1.305995   -2.617431   -2.270873
O       1.657531   -1.982512   -3.252120
N       1.248350   -3.998730   -2.246976
C       1.404487   -4.769887   -3.471093
C       2.168816   -6.069613   -3.227488
H       0.786681    1.761697    0.632771
H       0.238375    2.076052   -1.017497
H      -0.933198    2.006544    0.305350
H      -0.471978   -0.433949    0.621904
H      -1.004635   -0.130150   -1.024084
H       1.352988   -0.172729   -1.837471
H       1.928702   -0.394408   -0.184669
H       0.882430   -2.609157   -0.260643
H       0.700371   -4.426155   -1.516141
H       0.426627   -4.989557   -3.925546
H       1.939380   -4.122678   -4.168361
H       3.166539   -5.865049   -2.828498
H       1.645188   -6.715827   -2.513216
H       2.275539   -6.630219   -4.161376
