18

O       0.144234    1.372702    0.027221
C       0.019594   -0.013171   -0.022471
C      -0.414514   -0.762478    1.210896
O      -0.946344    0.052044    2.238523
C      -2.359516    0.303885    2.128421
C      -2.675359    1.030650    0.804107
N      -2.654988   -0.321388    0.123294
C      -3.093218   -0.881434    1.470234
C      -1.286161   -0.808442   -0.036080
H       0.120605    1.610204    0.964770
H       0.801606   -0.473321   -0.622684
H       0.142867   -1.609168    1.600485
H      -2.665545    0.705398    3.096817
H      -3.698843    1.416011    0.775463
H      -1.981822    1.769220    0.414293
H      -2.759608   -1.898458    1.686503
H      -4.179188   -0.809101    1.568964
H      -1.243001   -1.709619   -0.642717
