19

C      -0.002343   -1.244976    0.194370
C       0.004182   -0.042997    0.185489
C       0.047662    1.412856    0.163079
C       1.430653    1.963374   -0.259030
C       1.448220    3.458779   -0.284976
C       0.811226    4.422171   -1.309251
C       1.923847    5.468473   -0.948135
C       2.482215    4.453399    0.057216
O       1.424495    4.149131    0.977439
H      -0.022985   -2.306330    0.209173
H      -0.721866    1.791888   -0.521694
H      -0.200466    1.809942    1.154533
H       2.190000    1.605511    0.442952
H       1.689857    1.573210   -1.249444
H       0.888547    4.069203   -2.340745
H      -0.221524    4.708369   -1.097205
H       2.598928    5.667167   -1.783836
H       1.591631    6.413790   -0.513200
H       3.497577    4.327309    0.417347
