13

C      -0.031951    1.505346   -0.001291
C      -0.009032    0.007873   -0.052594
N      -0.043788   -0.624423   -1.181945
C      -0.021739   -1.997337   -1.203708
C       0.036127   -2.680881   -0.044466
F       0.061906   -3.987266    0.054447
O       0.074057   -2.097490    1.144142
C       0.054702   -0.685953    1.246758
O       0.090335   -0.200365    2.338301
H       0.860328    1.888267    0.505679
H      -0.080655    1.904814   -1.014463
H      -0.891305    1.858988    0.578543
H      -0.051507   -2.504746   -2.157470
