17

O      -0.141271    1.373535    0.162187
C       0.101774   -0.009330   -0.033041
C      -1.207725   -0.729373    0.297962
N      -1.100048   -2.112005   -0.122675
C      -0.241652   -2.491432   -1.104731
C      -0.238912   -3.956992   -1.406782
O      -0.942502   -4.750251   -0.828081
N       0.556200   -1.753476   -1.791773
C       0.526465   -0.329257   -1.476025
H       0.681617    1.847980    0.007440
H       0.881150   -0.373523    0.654307
H      -1.403652   -0.680550    1.373144
H      -2.029595   -0.207736   -0.211992
H      -1.643253   -2.843740    0.308253
H       0.470010   -4.236916   -2.207898
H      -0.165956    0.184163   -2.159503
H       1.521006    0.090367   -1.674115
