15

O      -0.098409    0.279473    0.715112
C      -0.105852    1.362527    0.178204
C       1.077235    2.297977    0.195709
C       1.922777    2.340820    1.405642
O       2.355973    1.671374    0.234589
N      -1.179729    1.844468   -0.568356
C      -1.975937    3.007725   -0.201107
C      -2.549782    1.621250   -0.176960
H       1.011463    3.176035   -0.443830
H       2.448170    3.262945    1.650418
H       1.661060    1.691166    2.238247
H      -1.771529    3.481224    0.756196
H      -2.224707    3.689332   -1.009493
H      -3.222827    1.307837   -0.969183
H      -2.712817    1.149007    0.787873
