18

C      -0.836041    1.259037   -0.027263
C       0.025540    0.007314    0.028625
N       1.270527    0.027307   -0.797900
C       2.132287   -0.414327    0.309575
C       2.883440   -1.773491    0.334650
O       4.122287   -1.132259    0.670478
C       3.531271    0.179559    0.562036
C       0.941929   -0.194477    1.250316
O       0.801398   -0.164432    2.435877
H      -0.225793    2.152163    0.131146
H      -1.327933    1.348917   -1.000669
H      -1.608691    1.218292    0.746751
H      -0.593145   -0.890349   -0.126046
H       1.264372   -0.583765   -1.607108
H       2.564889   -2.493677    1.097898
H       2.918409   -2.271361   -0.645813
H       3.920645    0.750163   -0.290203
H       3.643006    0.759646    1.485301
