15

N      -0.019974    1.329162    0.479059
C       0.010303    0.013887    0.131443
C      -1.026441   -0.829897   -0.212683
N      -0.467670   -2.060844   -0.401968
N       0.768304   -2.069189   -0.225615
O       1.142534   -0.654543    0.148354
N      -2.371889   -0.465401   -0.345103
C      -3.207588   -1.221605   -1.286208
C      -3.399692   -1.379099    0.179091
H       0.828939    1.853670    0.334778
H      -0.871145    1.802879    0.213094
H      -3.902414   -0.623193   -1.868250
H      -2.734135   -2.042079   -1.817443
H      -3.052418   -2.304091    0.630562
H      -4.234657   -0.896693    0.678505
