16

C      -0.013049    1.491140   -0.095353
C       1.549983    1.337202    0.024946
C       1.132499    0.164960    0.981769
N      -0.062915   -0.046448    0.035543
C       0.706405   -0.362050   -1.177351
C       1.766401    0.491629   -1.223855
N       2.370528    0.246842   -2.423945
C       1.638524   -0.770322   -3.012567
N       0.603882   -1.150914   -2.274721
H      -0.489131    1.963600    0.770032
H      -0.425195    1.877170   -1.029269
H       2.227886    2.143419    0.303847
H       1.797681   -0.695840    1.068115
H       0.780962    0.495464    1.963603
H       3.205446    0.661866   -2.802607
H       1.927639   -1.196755   -3.960383
