20

C      -0.655951    1.503284    0.444545
C      -0.018663    0.147637    0.205297
C      -0.608417   -0.634511   -0.953346
C       1.470059    0.005371    0.476570
C       0.456336   -0.640866    1.391941
O       0.214701   -0.104463    2.667641
C       1.077941   -0.582963    3.668329
C       2.442244   -0.020067    3.599926
N       3.507615    0.425426    3.565351
H      -0.229635    1.999632    1.318062
H      -0.511306    2.151668   -0.426706
H      -1.734659    1.403352    0.611014
H      -0.475256   -0.090429   -1.895466
H      -0.130721   -1.612836   -1.066517
H      -1.682896   -0.798964   -0.811785
H       2.067565   -0.635888   -0.163071
H       1.992052    0.874624    0.859382
H       0.352115   -1.726608    1.361948
H       0.637697   -0.297779    4.628770
H       1.157032   -1.680246    3.647343
