21

C      -0.156785    1.575404   -0.068003
C       0.028042    0.056471    0.000574
C       0.889343   -0.499309   -1.131302
C       1.393974   -1.924301   -0.769653
O       2.664500   -1.697000   -1.474264
C       2.396451   -0.454608   -0.735616
C       1.941548   -1.255311    0.522112
C       0.820285   -0.512799    1.245527
C       1.329868    0.507072    2.268363
H       0.800668    2.105981   -0.084602
H      -0.697984    1.849891   -0.979617
H      -0.732655    1.952526    0.782619
H      -0.966814   -0.404399   -0.034204
H       0.624287   -0.294824   -2.169078
H       0.902408   -2.889835   -0.898304
H       3.122349    0.353813   -0.827928
H       2.701573   -1.787337    1.095138
H       0.185904   -1.232736    1.777133
H       2.011313    1.236017    1.818055
H       0.508160    1.060801    2.732675
H       1.877977   -0.001237    3.068661
