16

O      -0.009208    0.009109    0.075818
C       0.028137    1.205873    0.028948
C      -1.227307    2.154964    0.072934
O      -0.815127    3.516207   -0.156694
C       0.450520    3.404994   -0.786623
C       1.834945    3.902708   -0.240501
C       1.532957    3.159457    1.069945
C       1.123799    2.218206   -0.120451
N       2.459975    2.591893   -0.755219
H      -1.921498    1.819054   -0.709572
H      -1.738102    2.088782    1.038203
H       0.365324    3.387364   -1.882343
H       2.346170    4.853504   -0.395779
H       2.400592    2.814538    1.630715
H       0.727777    3.550305    1.687053
H       2.365150    2.544822   -1.776855
