13

C      -0.028119    1.507447   -0.023339
C      -0.010116    0.013739    0.022199
N      -0.029436   -0.719313   -1.091296
N      -0.004057   -1.971670   -0.633289
N       0.030721   -2.135333    0.666784
C       0.027890   -0.873427    1.129326
C       0.060253   -0.548116    2.561631
O       0.092423   -1.351834    3.461188
H       0.864113    1.931970    0.447836
H      -0.062599    1.842178   -1.061620
H      -0.899939    1.912381    0.500294
H      -0.011305   -2.759095   -1.263623
H       0.050823    0.545796    2.765119
