18

O       0.417617    0.930006   -0.767194
C       0.083519   -0.258479   -0.112744
C       0.409100   -0.209292    1.381597
O       1.224272    0.536509    1.862845
C      -0.577115   -1.136779    2.093835
N      -1.523951   -1.583200    1.056144
C      -1.393550   -0.633476   -0.044812
C      -2.458722    0.410621   -0.242249
C      -2.298906   -0.732101   -1.225663
H       1.008756    1.407901   -0.165140
H       0.638003   -1.114536   -0.545438
H      -0.067459   -1.971574    2.583779
H      -1.085206   -0.561712    2.878426
H      -1.260575   -2.508138    0.729513
H      -3.310042    0.380417    0.427302
H      -2.131968    1.394128   -0.558021
H      -1.882991   -0.510487   -2.202549
H      -3.049723   -1.514806   -1.211431
