18

O      -0.081519    1.331108    0.018235
C       0.022710   -0.042783   -0.000622
C       0.666529   -0.984268    1.069256
C       0.045200   -1.904842   -0.020311
C       0.064735   -3.419961   -0.019860
C      -0.605325   -3.986149   -1.191207
N      -1.137975   -4.413788   -2.123093
C      -1.208306   -0.976495   -0.004009
C       0.652813   -0.958936   -1.098049
H       0.804239    1.709021   -0.007095
H       1.758642   -0.982800    1.140131
H       0.193277   -1.001972    2.054697
H       1.098422   -3.785429    0.000633
H      -0.425087   -3.805138    0.882381
H      -1.813613   -0.989718    0.906264
H      -1.824031   -0.973241   -0.906157
H       0.167861   -0.959146   -2.076811
H       1.744099   -0.955495   -1.180836
