15

C      -0.141703    1.466071   -0.031965
C      -0.021198    0.017536   -0.015984
C       0.086439   -1.184322   -0.002880
C       0.201272   -2.589751    0.012648
C       1.310525   -3.427326    0.001344
C       0.763559   -4.723676    0.028559
O       1.468387   -5.873256    0.029194
N      -0.564116   -4.722123    0.054755
N      -0.886950   -3.409528    0.044520
H       0.845712    1.939797   -0.015073
H      -0.662052    1.813668   -0.931513
H      -0.699795    1.829518    0.838166
H       2.346569   -3.138119   -0.022777
H       0.829292   -6.596581    0.050967
H      -1.853000   -3.132762    0.060035
