16

O      -0.016163    1.457192   -0.147469
C      -0.007554    0.125845    0.323609
C      -1.323210   -0.569329    0.037559
O      -1.542659   -0.669923   -1.420467
C      -1.654454   -2.052487   -1.374343
N      -1.883046   -2.897752   -2.266784
C      -1.394198   -2.095979    0.105012
C      -0.691303   -3.090899    0.918143
O      -2.100350   -2.860595    1.045792
H      -0.196814    1.418504   -1.093891
H       0.815263   -0.460371   -0.114845
H       0.152468    0.172891    1.406465
H      -2.167058   -0.052793    0.502843
H      -2.015382   -2.464602   -3.181800
H      -0.413876   -4.039089    0.462963
H      -0.086733   -2.765513    1.763013
