16

C      -0.128353    1.544102   -0.024024
C       0.100111    0.022070   -0.049273
C       0.738910   -0.507025    1.195498
N       2.045399   -0.768016    1.287356
N       2.197303   -1.198815    2.527921
N       1.094616   -1.245162    3.282218
C       0.151181   -0.808937    2.449471
N      -1.195370   -0.766268    2.804062
H       0.821274    2.076315    0.083596
H      -0.608403    1.881804   -0.947747
H      -0.769872    1.843414    0.812608
H      -0.858634   -0.488800   -0.202745
H       0.737204   -0.236721   -0.900227
H       3.088187   -1.504682    2.879658
H      -1.324723   -0.878353    3.801342
H      -1.672200    0.063470    2.478071
