15

C      -0.300417    1.619150   -0.042495
C      -0.009244    0.129150   -0.073314
C      -1.206166   -0.729395    0.295617
C       0.844311   -0.371362   -1.263307
C       1.905464   -0.626817   -0.195592
O       3.016666   -1.047474   -0.140605
O       1.128516   -0.178634    0.836682
H       0.597568    2.197749   -0.275979
H      -1.075098    1.870119   -0.774274
H      -0.654820    1.920112    0.947814
H      -2.018797   -0.576874   -0.422009
H      -0.940380   -1.790064    0.298158
H      -1.574907   -0.465545    1.291260
H       0.488780   -1.271682   -1.767647
H       1.125073    0.378329   -2.005246
