20

C       0.114019    1.439237    0.089993
N       0.088059   -0.011521    0.043683
C       0.454536   -0.603654   -1.019288
O       0.918067    0.084899   -2.110635
C       0.888326   -0.603821   -3.363586
C       1.552171   -1.973221   -3.282571
C       0.994874   -2.747364   -2.112951
C       1.089949   -4.243156   -2.147420
C       0.460525   -2.066598   -1.090460
H       1.085745    1.788588    0.464977
H      -0.053485    1.916072   -0.883104
H      -0.646071    1.784230    0.797481
H      -0.155327   -0.717380   -3.687690
H       1.397215    0.055293   -4.070950
H       1.379895   -2.511643   -4.222805
H       2.641755   -1.869555   -3.180598
H       2.133725   -4.565553   -2.257521
H       0.686620   -4.695606   -1.238230
H       0.547493   -4.653516   -3.008972
H       0.050116   -2.562741   -0.218522
