14

O       0.112371    1.395943   -0.077247
C       0.047161    0.033441   -0.048014
C       0.119408   -0.816749    1.279572
N      -1.311734   -0.423858    1.556595
C      -1.301799   -0.774235    0.088117
C      -0.314220   -1.946203    0.312369
O       0.601799   -2.044800   -0.783926
C       0.879556   -0.723604   -1.067643
O       1.612201   -0.355625   -1.929263
H      -0.469086    1.714289    0.627736
H       0.898026   -0.810765    2.042443
H      -1.786405   -1.153955    2.096762
H      -2.187770   -0.718443   -0.544494
H      -0.637772   -2.922982    0.663409
