19

C      -0.462844    0.900780   -0.181423
O       0.531988   -0.078517    0.078692
C       1.006671   -0.684531   -1.066162
C       1.504391   -2.085463   -0.921617
C       0.205229   -1.829308   -1.690566
O      -0.992947   -2.121695   -1.041794
C      -1.338104   -3.497569   -1.058076
C       0.204425   -1.973353   -3.122817
C       0.196371   -2.094007   -4.320298
H      -0.079174    1.695796   -0.837909
H      -1.349117    0.450388   -0.642649
H      -0.734171    1.337425    0.782144
H       1.507859   -0.021639   -1.773404
H       2.385321   -2.399627   -1.468153
H       1.370052   -2.521940    0.061935
H      -2.281187   -3.589336   -0.515455
H      -1.471497   -3.865769   -2.083487
H      -0.572636   -4.108533   -0.559779
H       0.187754   -2.193027   -5.377534
