19

O       0.159077   -0.149420    0.390528
C       0.122727    1.063891    0.375632
N       1.128072    1.852854   -0.068370
C       2.497176    1.492383   -0.439967
C       2.837117    3.009810   -0.468777
C       1.380072    3.300873    0.018324
C       0.515797    4.166036   -0.861417
C      -0.673234    4.857320   -0.301452
N       0.524575    5.625844   -0.678949
H      -0.751084    1.656188    0.716878
H       3.011367    0.908075    0.329844
H       2.572927    0.960005   -1.392409
H       3.624221    3.326436    0.215310
H       3.046410    3.404952   -1.463904
H       1.336833    3.678474    1.050917
H       0.490764    3.855486   -1.904528
H      -1.544374    5.030240   -0.926149
H      -0.892599    4.718018    0.754569
H       1.055800    5.868828    0.155216
