25

C      -0.101280    1.578596    0.096835
C      -0.002608    0.052110    0.009535
C       0.743809   -0.474026   -1.226092
C       2.230054   -0.080922   -1.257221
C       2.934517   -0.725539   -2.453173
O       2.789673   -2.133840   -2.462155
C       1.428729   -2.546651   -2.532736
C       1.428909   -4.066302   -2.611710
C       0.635130   -2.004335   -1.337701
H       0.882865    2.048251    0.189517
H      -0.584898    1.995127   -0.794150
H      -0.691555    1.883207    0.966711
H       0.485691   -0.337484    0.913454
H      -1.015612   -0.371544    0.008270
H       0.265252   -0.039836   -2.118804
H       2.353444    1.006587   -1.310583
H       2.717015   -0.419443   -0.332806
H       2.536107   -0.299556   -3.391552
H       4.010977   -0.529778   -2.430562
H       0.984163   -2.135852   -3.458813
H       1.871823   -4.494522   -1.706989
H       0.408150   -4.447219   -2.712864
H       2.014662   -4.403378   -3.471151
H       1.025800   -2.468107   -0.421295
H      -0.415908   -2.305473   -1.428694
