16

C       0.072122    1.454539    0.009243
C       0.024837    0.003391    0.001349
C      -0.035611   -1.202245   -0.004481
C      -0.082503   -2.645866   -0.011646
O      -1.124561   -3.268509   -0.005179
C       1.274147   -3.338873   -0.028062
C       1.126026   -4.868321   -0.034812
C       2.421444   -5.541873   -0.050689
N       3.454030   -6.060454   -0.062598
H       1.102709    1.823261    0.001167
H      -0.443480    1.861993   -0.867072
H      -0.425997    1.851726    0.900268
H       1.834061   -2.992804   -0.904799
H       1.850461   -3.002074    0.841635
H       0.559381   -5.193834    0.842853
H       0.543002   -5.184562   -0.905090
