17

C      -0.117271    1.400471    0.164302
O      -0.051042    0.001351   -0.058149
C      -1.311726   -0.649629   -0.095096
C      -1.108359   -2.027815   -0.727341
N      -0.472048   -3.025131    0.125861
C      -0.649235   -2.900071    1.373032
N      -1.372962   -1.882772    1.998719
C      -1.827401   -0.754018    1.344571
O      -2.485590    0.098688    1.900870
H       0.910630    1.768485    0.132002
H      -0.703448    1.898146   -0.622524
H      -0.563842    1.646426    1.135027
H      -2.035935   -0.057255   -0.671684
H      -2.083338   -2.424971   -1.045144
H      -0.505412   -1.901111   -1.631585
H      -0.233584   -3.632705    2.063300
H      -1.551968   -1.927563    2.992289
