21

C      -0.122932    1.490014    0.110923
C       0.115423    0.008003   -0.011552
O      -0.465870   -0.789523    1.030659
C       0.978234   -0.780341    0.889482
C       1.486015   -1.947105    0.111828
C       0.967898   -1.928297   -1.117192
C       0.098776   -0.706540   -1.388094
C      -1.333059   -1.106833   -1.787706
C       0.740164    0.156296   -2.491238
H       0.622816    2.068303   -0.442099
H      -1.112422    1.760044   -0.275767
H      -0.083537    1.784051    1.162502
H       1.516460   -0.357554    1.733298
H       2.138512   -2.707579    0.522863
H       1.111080   -2.692616   -1.874845
H      -1.803767   -1.681386   -0.987373
H      -1.944601   -0.218997   -1.984388
H      -1.328591   -1.713670   -2.699372
H       0.831910   -0.421259   -3.417223
H       0.132173    1.039805   -2.711826
H       1.743328    0.488789   -2.206484
