17

N       0.054136    1.199874    0.328665
C       0.030150   -0.032973    0.082346
O       1.105336   -0.837038   -0.171568
C       0.614908   -2.126894   -0.527816
O      -0.686876   -2.226887   -0.015248
C      -1.217004   -0.902445    0.013992
C      -2.153502   -0.721291    1.189498
C      -3.060386   -1.818899    1.593842
N      -1.911393   -1.439855    2.442268
H       1.005548    1.568266    0.306225
H       0.625004   -2.219510   -1.625138
H       1.246969   -2.892828   -0.071581
H      -1.753207   -0.682219   -0.923315
H      -2.460427    0.314221    1.308496
H      -4.036512   -1.589916    2.011285
H      -3.001420   -2.751826    1.040663
H      -1.164811   -2.114620    2.286618
