19

C       0.254970    1.465646    0.046883
C      -0.063397   -0.029925   -0.044045
C       0.640581   -0.708822   -1.255139
N       1.842026   -1.221022   -0.631429
C       3.025410   -1.815675   -1.024084
C       3.658538   -2.226901    0.125198
C       2.829905   -1.902916    1.251220
C       1.716585   -1.291755    0.725793
N       0.457230   -0.800009    1.115400
H       1.337058    1.630151    0.073612
H      -0.156590    2.005921   -0.812358
H      -0.182113    1.901374    0.951764
H      -1.146690   -0.168994   -0.112093
H       0.030312   -1.520620   -1.671323
H       0.860172    0.004747   -2.054961
H       3.310746   -1.874252   -2.061191
H       4.626464   -2.703714    0.168952
H       3.037989   -2.096685    2.290995
H       0.470442   -0.261639    1.972855
