16

N      -0.130842    1.286344    0.043632
C       0.054399   -0.057702    0.165192
O       1.000199   -0.601105    0.679487
O      -1.018466   -0.714383   -0.373033
C      -0.980285   -2.117646   -0.240617
C      -1.881704   -2.760986    0.745490
C      -2.192734   -2.857886   -0.755911
C      -3.366105   -2.104403   -1.263632
O      -4.061937   -2.475179   -2.176173
H       0.670587    1.866960    0.219992
H      -0.843676    1.631136   -0.576251
H      -0.001152   -2.541400   -0.425731
H      -1.555428   -3.658927    1.256160
H      -2.526004   -2.106140    1.323030
H      -2.017879   -3.801196   -1.260692
H      -3.575688   -1.154896   -0.724626
