17

C      -0.585454    1.146319   -0.068634
N      -0.053159   -0.203636   -0.014407
C       0.775931   -0.646368   -0.876588
N       1.327709   -1.906868   -0.743218
C       0.910545   -2.811626    0.302864
C      -0.313564   -3.639934   -0.076195
O      -0.505956   -4.763438    0.305673
C       1.309563    0.072615   -2.093758
O       1.011424    1.192701   -2.413862
H       0.197930    1.912943   -0.048958
H      -1.175962    1.325128   -0.975175
H      -1.234742    1.291096    0.799023
H       1.791936   -2.301068   -1.545120
H       1.723952   -3.486932    0.581949
H       0.640758   -2.201905    1.173221
H      -1.025305   -3.114341   -0.751252
H       2.026114   -0.526471   -2.705504
