18

O      -0.009360   -0.128318   -0.113917
C       0.002401    1.087571   -0.037465
C      -1.317790    1.878738    0.113815
C      -1.223892    3.243204   -0.556658
C      -1.976646    4.468408    0.045376
C      -0.591003    5.108689    0.351193
N       0.049091    3.930981   -0.263828
C       1.166954    3.246944    0.077036
C       1.218682    1.887359    0.047393
H      -2.135368    1.280602   -0.293708
H      -1.495644    1.989175    1.192638
H      -1.357367    3.132678   -1.640811
H      -2.594289    5.022735   -0.661845
H      -2.567831    4.234485    0.931945
H      -0.371282    6.046103   -0.170521
H      -0.366470    5.235349    1.415629
H       2.033862    3.855571    0.327437
H       2.159011    1.365005    0.168462
