19

C       0.019872   -1.228547    0.096470
C      -0.030334   -0.024983    0.039109
C      -0.025702    1.393746   -0.035044
C      -1.163907    2.109718    0.047142
C      -1.196114    3.584955    0.005217
C      -0.340198    4.384622    0.987373
C       0.062860    4.297120   -0.454194
C       1.214316    3.430465   -0.926527
C       1.320918    2.083429   -0.186717
H       0.045277   -2.288352    0.149304
H      -2.110191    1.588438    0.154317
H      -2.152189    4.024606   -0.257995
H      -0.743781    5.323692    1.350317
H       0.213676    3.820592    1.729331
H      -0.094154    5.194921   -1.045204
H       1.071695    3.232798   -1.996430
H       2.163372    3.970674   -0.832173
H       1.764586    2.232498    0.806173
H       2.010735    1.423867   -0.721378
