21

C      -0.166298    1.442450    0.041111
C      -0.038008   -0.069423    0.019961
O       0.092745   -0.682688    1.064959
C      -0.027229   -0.767704   -1.333926
C      -1.010176   -0.163831   -2.334734
C       1.475330   -0.894299   -1.797732
C       1.528006   -2.322608   -1.200002
C      -0.024590   -2.337684   -1.203542
O      -0.736877   -2.963946   -0.183757
H       0.495118    1.911088   -0.694264
H      -1.190385    1.732318   -0.219180
H       0.063112    1.808704    1.042301
H      -0.805401    0.891522   -2.539953
H      -0.946063   -0.700347   -3.286542
H      -2.042969   -0.246232   -1.977975
H       1.535161   -0.884949   -2.889579
H       2.183583   -0.159545   -1.406874
H       2.043616   -3.096055   -1.772879
H       1.913106   -2.316776   -0.177650
H      -0.393402   -2.759901   -2.145013
H      -0.489371   -2.498104    0.629063
