16

C      -0.033201    1.508338    0.072046
C      -0.044247    0.016585   -0.021992
C      -0.094200   -0.751906   -1.115012
C      -0.039123   -2.241510   -0.803726
O       1.063950   -2.896960   -1.408515
C       0.036408   -2.256066    0.728482
O       1.262663   -1.678530    1.200315
C       0.054913   -0.868833    1.191270
H       0.887163    1.865476    0.550734
H      -0.109083    1.972273   -0.914526
H      -0.866922    1.874134    0.684458
H      -0.087874   -0.393057   -2.138611
H      -0.930277   -2.770537   -1.160620
H       1.847023   -2.532919   -0.974619
H      -0.343291   -3.092875    1.307005
H      -0.287515   -0.551097    2.171883
