19

C      -0.066247    1.512620    0.068375
C      -0.002294   -0.007122   -0.032259
O      -1.244604   -0.553537   -0.397955
C       1.137087   -0.529764   -0.937063
O       1.569629    0.374687   -1.921945
C       2.015281   -0.763877    0.319264
C       0.729060   -0.732397    1.185841
C       0.765559   -0.020006    2.503849
O       0.078431   -0.297583    3.455919
H       0.906648    1.952657    0.301733
H      -0.399730    1.923180   -0.887325
H      -0.771393    1.815786    0.851478
H      -1.934802   -0.129976    0.124481
H       0.814285   -1.483649   -1.372428
H       2.085702   -0.102797   -2.577542
H       2.626314   -1.667155    0.359836
H       2.649684    0.107570    0.511667
H       0.273074   -1.715365    1.316898
H       1.481958    0.834474    2.549455
