17

O      -0.154068    1.510084    0.316815
C       0.038022    0.110718    0.180828
C      -1.330581   -0.504820   -0.104671
C      -1.950343   -0.141816   -1.436397
C      -2.420702   -1.199981   -2.100739
C      -2.267048   -2.476648   -1.314764
O      -1.764801   -3.568573   -2.048493
C      -1.290536   -2.030670   -0.213037
O      -0.540007   -2.786519    0.351497
H       0.704869    1.920404    0.453610
H       0.725657   -0.124075   -0.645929
H       0.448838   -0.340277    1.094910
H      -1.992771   -0.222760    0.728601
H      -1.988077    0.886174   -1.775317
H      -2.902755   -1.179163   -3.070510
H      -3.228433   -2.746874   -0.836053
H      -1.182682   -4.048576   -1.442592
