22

C       0.026665    3.015786    2.174814
C       0.082867    1.720416    1.359878
C       0.974440    1.938611    0.112537
C       1.016869    0.832486   -0.835413
C       1.058074   -0.057305   -1.643505
N       0.669858    0.665560    2.182281
C      -0.076337    0.150852    3.325613
C       0.191853   -0.720742    2.146383
C      -0.952751   -1.206687    1.283597
H       1.027844    3.289732    2.522862
H      -0.371259    3.838378    1.572881
H      -0.614724    2.897565    3.052238
H      -0.935105    1.476293    1.017540
H       0.623724    2.837205   -0.410534
H       1.990603    2.151934    0.466135
H       1.103344   -0.842881   -2.356248
H       0.481028    0.050495    4.254049
H      -1.109887    0.473452    3.455434
H       1.011140   -1.434546    2.221589
H      -1.813904   -0.533721    1.313569
H      -0.642240   -1.317221    0.241245
H      -1.289351   -2.183409    1.648201
