21

O      -0.015463    1.391779   -0.210408
C       0.044059   -0.018673   -0.064720
C      -1.384318   -0.544873   -0.014270
C      -1.457682   -2.066587    0.144169
C      -2.885373   -2.599987    0.180449
C      -3.714640   -2.543499   -1.145117
C      -4.068597   -4.023224   -0.927458
O      -4.866767   -4.766265   -1.419364
C      -3.065435   -4.151431    0.229956
H       0.883993    1.729896   -0.244192
H       0.582331   -0.484742   -0.906861
H       0.578023   -0.302963    0.857304
H      -1.905373   -0.054193    0.817075
H      -1.899581   -0.233527   -0.931146
H      -0.916450   -2.551895   -0.681167
H      -0.939937   -2.366738    1.065496
H      -3.438460   -2.123550    0.996150
H      -4.558794   -1.852032   -1.204338
H      -3.093566   -2.406225   -2.038618
H      -2.165726   -4.699436   -0.074538
H      -3.448032   -4.601050    1.149875
