13

C      -0.016854    1.454423    0.017573
N       0.012167   -0.012104    0.018192
C       0.109234   -0.635698   -1.216013
O       0.169249   -0.050001   -2.256980
O       0.136575   -2.014528   -1.222349
N       0.073360   -2.789725   -0.069815
C      -0.014708   -2.170685    1.042772
C      -0.055994   -0.706464    1.221965
O      -0.140404   -0.171908    2.304248
H       0.895072    1.841357   -0.440639
H      -0.873768    1.806391   -0.559612
H      -0.092978    1.776389    1.053830
H      -0.063162   -2.786712    1.933919
