21

C      -0.033615    1.543544   -0.036018
C      -0.028724    0.004533    0.026661
C      -1.485326   -0.504028    0.116368
C       0.652184   -0.557560   -1.249246
C       0.992733   -2.030319   -1.119031
O       0.625486   -2.867346   -1.909945
C       1.848389   -2.378880    0.093536
C       1.572332   -1.491342    1.279460
C       0.740078   -0.452147    1.249609
H       0.985531    1.942897   -0.058254
H      -0.556511    1.894649   -0.932012
H      -0.542691    1.967461    0.836462
H      -2.079252   -0.126733   -0.723585
H      -1.527894   -1.597095    0.097800
H      -1.958923   -0.165285    1.043593
H       0.025049   -0.415238   -2.133321
H       1.594979   -0.015004   -1.405035
H       1.691502   -3.436701    0.331509
H       2.905278   -2.296008   -0.205834
H       2.080384   -1.750053    2.205345
H       0.569769    0.121671    2.158689
