20

C       0.278819    1.048869   -0.034817
O      -0.130387   -0.173314   -0.620312
C      -1.378216   -0.608270   -0.182242
C      -1.776534   -1.987828   -0.588920
C      -1.476153   -1.701627    0.869361
C      -0.209805   -2.270665    1.497099
C       0.089457   -1.659814    2.880769
C      -0.297833   -3.733867    1.601420
N      -0.372048   -4.883798    1.693553
H       1.249255    1.300912   -0.467573
H      -0.432609    1.856816   -0.259886
H       0.381412    0.972542    1.056521
H      -2.141067    0.170812   -0.165537
H      -2.800354   -2.176972   -0.889069
H      -1.031595   -2.556620   -1.135675
H      -2.327083   -1.655828    1.543623
H       0.624773   -2.045502    0.822230
H       0.188601   -0.574880    2.794779
H      -0.720212   -1.876606    3.583502
H       1.016615   -2.062826    3.295549
