20

C      -0.050772    1.518118    0.121989
C       0.002117    0.034848   -0.031229
C       0.012436   -0.782454   -1.137443
C      -0.029681   -0.365674   -2.576084
C       0.071614   -2.151696   -0.684400
C       0.101588   -3.381456   -1.539018
C       0.094508   -2.094675    0.686838
O       0.147634   -3.045519    1.659073
N       0.052935   -0.790576    1.085552
H       0.826084    1.914372    0.651734
H      -0.082169    2.000670   -0.857130
H      -0.939390    1.849233    0.676319
H       0.853023   -0.713203   -3.128314
H      -0.905584   -0.775988   -3.095100
H      -0.070574    0.721840   -2.682488
H       0.973957   -3.405901   -2.204538
H       0.142838   -4.297982   -0.936991
H      -0.787226   -3.467429   -2.177057
H       0.175183   -3.907217    1.232193
H       0.061037   -0.493352    2.045418
