19

C      -0.106625    1.506042   -0.045683
C       0.062699   -0.000149    0.072935
O       0.898224   -0.509376   -1.005106
C       1.898387   -1.200519   -0.301060
C       1.198870   -2.002004    0.869573
C       2.359517   -2.372713    1.767067
C       3.107141   -1.263071    1.795291
C       2.353821   -0.292661    0.910011
C       0.837197   -0.523235    1.280538
H       0.849079    2.026125    0.061781
H      -0.524679    1.760532   -1.023899
H      -0.792033    1.874194    0.725080
H      -0.919842   -0.486200   -0.002156
H       2.613604   -1.665990   -0.980484
H       0.417136   -2.730528    0.652269
H       2.530518   -3.336431    2.224945
H       4.053336   -1.076550    2.282852
H       2.755247    0.705599    0.738138
H       0.457315   -0.292235    2.277089
