19

C      -0.330549    1.405166    0.077932
C       0.073657   -0.064298    0.016365
C       0.714838   -0.420658   -1.326059
C       0.998408   -1.891803   -1.607176
O       1.044620   -2.277132   -2.761241
C       1.220291   -2.883245   -0.525914
C       1.192027   -2.747537    0.805682
C       0.969517   -1.544306    1.672108
O       1.014625   -0.282210    1.067141
H       0.546221    2.044759   -0.064616
H      -1.062226    1.641882   -0.699902
H      -0.767539    1.636987    1.052631
H      -0.816216   -0.690175    0.188045
H       0.106623   -0.061805   -2.161792
H       1.674619    0.110213   -1.383219
H       1.397982   -3.873126   -0.938161
H       1.331266   -3.654066    1.395698
H       0.009950   -1.694839    2.205451
H       1.743854   -1.531424    2.450121
