17

C      -0.111742    1.593955    0.044188
C       0.050271    0.064428   -0.014146
O       0.835754   -0.393192    1.094374
C      -1.268821   -0.587316    0.009784
C      -2.351790   -1.106339    0.064448
C       0.804417   -0.338693   -1.284004
C       2.285401   -0.369450   -1.295129
N       1.502922   -1.621312   -1.354102
H       0.876853    2.058342    0.075586
H      -0.652882    1.961704   -0.832364
H      -0.672058    1.885465    0.937157
H       0.254810   -0.459177    1.858623
H      -3.304215   -1.575651    0.099572
H       0.271355   -0.066297   -2.191647
H       2.822321   -0.118503   -2.205487
H       2.801685   -0.134831   -0.370091
H       1.495849   -2.030300   -0.421159
