15

N      -0.102626    1.299266   -0.214123
C      -0.039234    0.039882   -0.016387
N      -1.185678   -0.720620    0.068213
C      -1.171991   -1.976203    0.803428
C      -0.032071   -2.840718    0.267239
C       1.281512   -2.079501    0.238061
O       2.373286   -2.598069    0.306456
N       1.144779   -0.706398    0.108776
H       0.819586    1.710964   -0.336052
H      -2.007972   -0.141278    0.149991
H      -1.048332   -1.823989    1.887732
H      -2.132536   -2.474735    0.651074
H       0.116503   -3.742091    0.864430
H      -0.253721   -3.151571   -0.760697
H       2.015882   -0.196878    0.060867
