16

C      -0.159995    1.561001    0.126038
C      -0.060637    0.069541    0.020003
N       1.140532   -0.563316   -0.486746
C       0.726585   -0.937538    0.880544
C       1.645276   -0.668139    2.003653
O       1.572901   -1.225001    3.071486
C      -0.479054   -1.861514    0.873232
O      -1.615216   -1.153984    1.390075
C      -1.232347   -0.914999    0.032845
H       0.818000    2.003597    0.326881
H      -0.533464    1.984955   -0.813098
H      -0.851756    1.839738    0.925756
H       0.954416   -1.316796   -1.146004
H       2.422205    0.094349    1.782348
H      -0.507318   -2.943246    0.906140
H      -1.970537   -1.098458   -0.739503
