21

C      -0.374339    1.434198    0.141543
C       0.080615   -0.008523   -0.043714
C      -1.045574   -1.052205    0.258078
C      -0.351962   -1.414585    1.600581
C       0.904962   -0.613808    1.153340
C       2.006394   -1.420626    0.500644
O       1.522240   -2.428591   -0.404238
C       2.006865   -1.197693   -0.956043
C       0.910924   -0.220860   -1.334609
H       0.477861    2.123765    0.152974
H      -1.043511    1.742113   -0.670715
H      -0.919807    1.561366    1.083245
H      -2.055922   -0.639187    0.331705
H      -1.050934   -1.883569   -0.447815
H      -0.841220   -0.969719    2.470519
H      -0.196142   -2.477737    1.792105
H       1.321342    0.093308    1.877622
H       2.900755   -1.699102    1.053792
H       2.902247   -1.289452   -1.567553
H       0.298663   -0.593132   -2.163738
H       1.369852    0.719227   -1.666737
