20

C      -0.028670    1.511164   -0.066614
C      -0.017743   -0.019494    0.034060
C      -1.401159   -0.603582    0.142106
C      -2.364420   -0.377755    1.327705
C      -3.124673   -1.582446    0.729125
C      -3.476925   -1.167468   -0.714213
C      -2.345636   -1.901637   -1.327960
C      -1.778325   -2.122748    0.094771
N      -2.242362   -0.422748   -1.130413
H       0.983805    1.903040   -0.201089
H      -0.638238    1.831837   -0.915842
H      -0.445111    1.965781    0.838476
H       0.472425   -0.444242   -0.851345
H       0.572423   -0.339665    0.902170
H      -1.882031   -0.632732    2.277278
H      -2.880953    0.582721    1.410747
H      -3.821388   -2.200163    1.292203
H      -4.424470   -0.848106   -1.130112
H      -2.217733   -2.384689   -2.289149
H      -1.193555   -2.947760    0.493940
