21

O      -0.257157    1.521127    0.181417
C      -0.045694    0.116852    0.060746
C       0.722109   -0.227741   -1.199432
C       0.436937   -1.509694   -1.953040
C       0.028804   -0.182724   -2.535858
C       0.627735   -0.462018    1.305040
O       0.695113   -1.864565    1.292359
C       1.739661    0.290643    1.997172
C       0.376806    0.133374    2.649357
H       0.530579    1.968755   -0.143067
H      -1.047814   -0.327328   -0.004400
H       1.762633    0.094899   -1.180274
H       1.270125   -2.036027   -2.406163
H      -0.342350   -2.157075   -1.565975
H      -1.026346    0.068480   -2.539539
H       0.580208    0.195100   -3.389380
H       1.262729   -2.121103    0.557050
H       2.556715   -0.302087    2.392505
H       2.017640    1.276944    1.640674
H      -0.258552    1.008908    2.698604
H       0.295890   -0.561797    3.476784
