16

O       0.069804    0.113158    0.354659
C       0.007289    1.294324    0.132983
C      -1.201473    2.109974   -0.192997
C      -1.385303    3.317816    0.676798
N      -0.786112    3.463559   -0.638534
C       0.697828    3.523932   -0.595616
C       1.192190    2.254359    0.082416
C       2.297020    2.125996    1.050504
O       2.446607    1.703781   -0.298960
H      -2.048293    1.638152   -0.677855
H      -2.385941    3.726058    0.781579
H      -0.756589    3.417145    1.559969
H       1.067637    3.545384   -1.625689
H       1.013911    4.445739   -0.099789
H       2.854404    3.018722    1.332641
H       2.263858    1.324054    1.786257
