18

C      -0.123091    1.574317    0.129872
C      -0.033421    0.044708    0.073133
C       1.047529   -0.469112   -0.951011
C       1.993912   -0.748233    0.248520
C       0.795051   -0.594019    1.222581
C      -1.394542   -0.565912   -0.147420
O      -1.937691   -1.367315    0.570783
C      -2.068936   -0.136216   -1.400544
N      -2.583588    0.200855   -2.379813
H       0.878986    2.000428    0.235623
H      -0.568291    1.985557   -0.781487
H      -0.721318    1.902635    0.986176
H       0.740232   -1.383186   -1.465965
H       1.372659    0.257932   -1.698101
H       2.502205   -1.713894    0.247566
H       2.745006    0.034754    0.375730
H       0.944230    0.031761    2.105093
H       0.369778   -1.548222    1.538405
