21

C      -0.912287    1.105663   -0.126059
C       0.001611   -0.120899    0.008830
C       0.644551   -0.577811   -1.291795
C       1.680051    0.380236   -1.873958
N       2.069139   -0.003185   -3.215078
C       3.345351    0.062174   -3.667953
O       4.297264    0.468470   -3.032701
C       0.777677   -2.034083   -1.541620
N      -0.203217   -1.234938   -2.307553
H      -0.361307    1.997040   -0.438793
H      -1.706103    0.931736   -0.860274
H      -1.388485    1.334238    0.831887
H       0.792427    0.088931    0.740697
H      -0.578070   -0.956609    0.419751
H       1.273705    1.400690   -1.874333
H       2.583164    0.393489   -1.257058
H       1.336553   -0.380264   -3.799581
H       3.427881   -0.305501   -4.710493
H       1.607822   -2.413658   -2.129641
H       0.408035   -2.716290   -0.781029
H      -1.142146   -1.385250   -1.947465
