15

C      -0.004296    1.514643   -0.023100
C      -0.000339    0.016291    0.035707
C      -0.075203   -0.848032   -1.050279
N      -0.043936   -2.130459   -0.597423
C       0.049885   -2.103569    0.764834
C       0.079597   -0.792500    1.195228
N       0.099710   -3.321823    1.489590
O       0.054009   -4.366132    0.829179
O       0.184012   -3.259895    2.711888
H       0.908637    1.936944    0.410623
H      -0.074488    1.867375   -1.055690
H      -0.850055    1.937050    0.530237
H      -0.147815   -0.630813   -2.104583
H      -0.080492   -2.989644   -1.121593
H       0.150468   -0.475812    2.223031
