19

N       0.034931    0.853131   -0.555285
C      -0.048294   -0.497699   -0.328626
O       0.800437   -1.280178   -0.727541
N      -1.144093   -0.874519    0.434803
C      -2.529210   -0.517098    0.189432
C      -2.079091   -1.950982    0.161087
C      -2.111169   -2.753494   -1.126343
C      -1.263415   -4.039589   -1.105635
O       0.091832   -3.861928   -1.413227
H       0.937940    1.177634   -0.862945
H      -0.490375    1.477576    0.034858
H      -3.082398   -0.125019    1.039519
H      -2.765793   -0.056953   -0.767934
H      -2.294881   -2.545629    1.048735
H      -3.160621   -3.036891   -1.283944
H      -1.812726   -2.136208   -1.981265
H      -1.405808   -4.531083   -0.123917
H      -1.667511   -4.730556   -1.856022
H       0.410101   -3.030691   -1.019164
