17

C      -0.346151    1.444446   -0.004272
N       0.145378    0.060429    0.099187
C       0.736267   -0.461208   -1.108219
C       0.651311   -2.022525   -1.288433
N      -0.093610   -1.782489   -2.524369
C      -0.180353   -0.425875   -2.391181
O      -0.737868    0.432394   -3.017542
C       2.149661    0.025586   -1.397840
O       2.766516    0.742680   -0.652927
H       0.425735    2.169050   -0.298016
H      -1.156850    1.492776   -0.732752
H      -0.741408    1.736151    0.972355
H       0.862141    0.039821    0.820644
H       1.596719   -2.555407   -1.432172
H       0.068916   -2.478003   -0.484090
H      -0.576147   -2.410708   -3.150698
H       2.595751   -0.353423   -2.345003
