23

C      -0.033890    1.409719    0.041348
O      -0.012804    0.007703   -0.056039
C      -1.299226   -0.567327    0.045270
C      -1.156045   -2.081569   -0.033780
C      -2.495596   -2.805676    0.017880
C      -2.410979   -4.336583   -0.029890
C      -3.686966   -4.749757    0.715590
C      -3.788963   -3.658629    1.790388
O      -3.159502   -2.496343    1.251395
H       0.997766    1.761422   -0.041279
H      -0.630058    1.868776   -0.764283
H      -0.448483    1.748256    1.004609
H      -1.780081   -0.283756    0.993913
H      -1.947634   -0.200166   -0.770667
H      -0.642395   -2.340869   -0.967474
H      -0.525796   -2.425656    0.794141
H      -3.128125   -2.450696   -0.814643
H      -2.356319   -4.722212   -1.050788
H      -1.520408   -4.678509    0.510523
H      -4.550719   -4.707757    0.043448
H      -3.640141   -5.755766    1.139364
H      -4.824817   -3.416355    2.054998
H      -3.268530   -3.958470    2.711798
