17

O      -0.036572    1.500441   -0.186425
C       0.028517    0.109297   -0.000753
C      -1.331383   -0.655428   -0.069958
C      -2.584683    0.031221   -0.652170
C      -2.779184   -0.711596   -1.964089
C      -1.738023   -1.496271   -2.241632
N      -0.765959   -1.479920   -1.195305
C       0.399800   -0.671523   -1.260539
N       1.348124   -0.492501   -2.071417
H       0.634193    1.722361   -0.844100
H       0.621097   -0.145893    0.887457
H      -1.555615   -1.261171    0.810707
H      -3.442906   -0.063484    0.019258
H      -2.418350    1.102532   -0.820599
H      -3.647868   -0.588828   -2.597511
H      -1.570686   -2.108948   -3.117233
H       1.274363   -1.086881   -2.898860
