21

C      -0.030137    1.509602   -0.093991
C       0.015365   -0.009658   -0.049685
C       0.693216   -0.619477   -1.285974
C       0.872732   -2.138554   -1.146527
C       1.477468   -2.500928    0.227971
C       0.736963   -1.769527    1.351091
O       0.718387   -0.372284    1.139578
C      -0.406508   -2.916797   -1.398159
O      -1.456809   -2.446451   -1.754311
H       0.982838    1.920995   -0.149194
H      -0.593380    1.851257   -0.967370
H      -0.510045    1.901731    0.806528
H      -1.011251   -0.404832    0.014172
H       0.096484   -0.396278   -2.175301
H       1.676651   -0.151374   -1.411356
H       1.562892   -2.505637   -1.922818
H       1.442661   -3.584571    0.397256
H       2.531156   -2.203280    0.243661
H      -0.294849   -2.154408    1.437517
H       1.233466   -1.932593    2.312329
H      -0.299671   -4.017285   -1.243543
