16

C      -0.041199    1.503182   -0.017226
C       0.010297    0.049138   -0.013473
C       0.063351   -1.152297   -0.013668
C       0.095209   -2.614227   -0.000198
C      -1.338288   -3.212381    0.126616
C      -1.350619   -4.725232    0.249107
O      -1.998719   -5.319765    1.069859
C       0.776701   -3.135787   -1.199524
N       1.297876   -3.562879   -2.137796
H       0.964379    1.932392    0.042945
H      -0.511634    1.878154   -0.932147
H      -0.617664    1.879180    0.834549
H       0.681391   -2.950629    0.866849
H      -1.833909   -2.780733    0.998068
H      -1.908028   -2.932765   -0.768104
H      -0.719820   -5.264116   -0.491397
