18

O       0.167005   -0.031039   -0.166853
C       0.027748    1.155625   -0.053366
C      -1.162923    2.138062    0.068990
C      -0.091388    3.269118    0.046905
C      -0.023647    4.182142    1.264263
C       1.225903    5.086648    1.260775
C       1.282666    5.980344    2.410418
C       1.304765    6.706162    3.367975
N       0.923156    2.201082   -0.005652
H      -1.845862    2.115228   -0.781599
H      -1.728710    2.052390    0.998816
H      -0.119315    3.864554   -0.874993
H      -0.921751    4.809772    1.287144
H      -0.028980    3.574806    2.175880
H       2.127355    4.459823    1.244664
H       1.247153    5.678361    0.335626
H       1.335619    7.351812    4.210304
H       1.913611    2.221356   -0.200725
