23

C       0.250367    1.613111   -0.093120
C      -0.119722    0.129336    0.084369
C       0.616292   -0.541862    1.221022
C      -0.023047   -0.943517    2.323152
C       0.593229   -1.589744    3.542783
C       1.505016   -2.796100    3.263907
C       2.798450   -2.452285    2.524737
O       2.609456   -2.026802    1.189840
C       2.119407   -0.705872    1.039540
H       1.319089    1.744808   -0.293271
H      -0.297702    2.053395   -0.932101
H       0.008302    2.183272    0.809403
H      -1.199202    0.046193    0.250561
H       0.096327   -0.403410   -0.852571
H      -1.099712   -0.786816    2.366562
H       1.169341   -0.838669    4.106299
H      -0.210531   -1.906497    4.215542
H       1.780472   -3.262586    4.218935
H       0.957390   -3.546926    2.683131
H       3.357373   -1.684475    3.089102
H       3.435316   -3.341312    2.461985
H       2.396631   -0.411478    0.022118
H       2.657976   -0.030345    1.727700
