16

N       0.191526    1.481439   -0.013950
C       0.091605    0.063673   -0.002665
C      -0.076245   -0.633231    1.374690
N      -1.505429   -0.102897    1.391881
C      -1.323421   -0.689133    0.007602
C      -2.358021   -0.699706   -0.988148
N      -3.161102   -0.726364   -1.821404
C      -0.579144   -1.908619    0.661021
O       0.356462   -2.652437   -0.053094
H       0.156051    1.853088   -0.955937
H      -0.556316    1.893998    0.534216
H       0.818404   -0.397887   -0.668003
H       0.569893   -0.554346    2.247687
H      -2.104440   -0.717927    1.953277
H      -1.244059   -2.530771    1.275347
H      -0.101678   -3.346281   -0.539006
