15

O      -0.109751   -0.010026    0.007375
C      -0.039245    1.176190    0.011750
O      -1.176975    1.996865    0.031122
C      -0.693599    3.279424    0.030692
N       0.561522    3.460047    0.014061
C       1.146006    2.128807    0.000051
C       2.266041    1.823046    1.041641
N       3.102731    1.244440   -0.030610
C       2.237263    1.832730   -1.074366
H      -1.455015    4.049949    0.044459
H       2.631132    2.758927    1.480592
H       2.003789    1.117998    1.836670
H       4.064168    1.562983   -0.042231
H       1.953396    1.134962   -1.868392
H       2.590396    2.772639   -1.514495
