19

C      -0.048887    1.543224   -0.075153
C       0.024165    0.026648    0.082810
O       0.699582   -0.366549    1.272716
C      -1.362160   -0.610096    0.049783
N      -2.124591   -0.446767   -1.206416
C      -2.612864   -1.840164   -1.144856
C      -1.491208   -2.165001   -0.108167
C      -0.335131   -2.842620   -0.671190
N       0.568309   -3.396349   -1.133771
H       0.955105    1.974428   -0.047873
H      -0.517635    1.809520   -1.027144
H      -0.638264    1.995283    0.734135
H       0.616693   -0.394695   -0.735697
H       0.310621    0.119397    2.008638
H      -1.916580   -0.297535    0.951286
H      -2.841969    0.269081   -1.197711
H      -3.608423   -1.963752   -0.698593
H      -2.574972   -2.378726   -2.095207
H      -1.815973   -2.695739    0.787114
