19

C      -0.277411    1.492122   -0.086709
C       0.006651    0.010859    0.012658
C       1.340297   -0.575823   -0.329559
O       2.361777    0.322815   -0.644444
C       3.368207    0.432049    0.354045
C       2.775493    1.012456    1.642742
C       1.625487    0.147442    2.149257
O       1.389158    0.024257    3.331240
C       0.870764   -0.626015    1.116871
H       0.639138    2.082113   -0.044971
H      -0.763148    1.713972   -1.042643
H      -0.945592    1.822648    0.714368
H      -0.842167   -0.619312   -0.239340
H       1.392493   -1.509432   -0.887132
H       3.827484   -0.548753    0.548645
H       4.137431    1.088963   -0.060523
H       3.518225    1.089071    2.442105
H       2.403752    2.024382    1.440924
H       0.489446   -1.563425    1.506905
