19

C       0.005166    1.511627    0.066687
C       0.045868    0.017818   -0.044046
C      -0.892899   -0.931934    0.706611
O      -1.003869   -2.149626   -0.042642
C       0.452060   -2.047167   -0.247558
C       1.130605   -3.359654   -0.474180
C       0.573846   -1.032426    0.945132
C       0.520557   -0.837823   -1.225554
O      -0.248075   -0.914910   -2.390740
H       0.994402    1.952350   -0.100345
H      -0.679214    1.935274   -0.676392
H      -0.337291    1.832063    1.056705
H      -1.718396   -0.623696    1.334859
H       0.764791   -3.810901   -1.402526
H       2.211917   -3.218252   -0.565129
H       0.933762   -4.051572    0.349313
H       1.201778   -0.970338    1.822585
H       1.550177   -0.596979   -1.506089
H      -1.077388   -1.329347   -2.112525
