17

C      -0.044315    1.394673    0.039540
O      -0.079531   -0.014488   -0.035368
C       0.581156   -0.568394   -1.089015
C       0.640421   -1.929732   -1.303770
N       1.370350   -2.136438   -2.454869
C       1.721499   -3.432991   -2.989273
C       1.772629   -0.932313   -2.957017
C       1.299997    0.072608   -2.136991
H       0.984082    1.770278    0.132902
H      -0.508931    1.859450   -0.841117
H      -0.609358    1.674163    0.931022
H       0.226010   -2.747530   -0.738935
H       0.836344   -4.073535   -3.052323
H       2.128095   -3.307705   -3.994777
H       2.472114   -3.936877   -2.369036
H       2.364226   -0.882313   -3.857487
H       1.445198    1.129838   -2.286076
