19

O       0.058333    1.445720    0.021784
C      -0.011080    0.057399    0.057564
C      -0.393057   -0.746431    1.267454
C      -1.173039   -0.036435    2.372993
C      -2.480417    0.450913    1.741502
O      -2.423849    1.784698    1.140828
C      -2.924436    1.256414   -0.123449
C      -2.637853   -0.187990    0.339037
C      -1.276682   -0.786162    0.006317
H      -0.670157    1.813725    0.551070
H       0.808898   -0.349624   -0.527198
H       0.224656   -1.591063    1.555183
H      -1.399057   -0.740945    3.180235
H      -0.625680    0.801858    2.820273
H      -3.339590    0.394044    2.418171
H      -3.990081    1.485488   -0.240288
H      -2.358766    1.641466   -0.974487
H      -3.441485   -0.911507    0.193402
H      -1.266110   -1.649685   -0.650393
