18

C       0.095799    1.546183   -0.224703
C       0.024399    0.063207    0.051081
N       1.294826   -0.683183    0.079669
C       0.482594   -0.588472    1.309704
C       1.093264    0.139083    2.484563
C       2.110382   -0.726091    3.220716
O       2.603693    0.022242    4.322174
H       0.974251    1.997055    0.240957
H       0.160694    1.729961   -1.302607
H      -0.798309    2.056374    0.150189
H      -0.816003   -0.431842   -0.436024
H       1.186054   -1.595470   -0.354147
H      -0.072842   -1.484398    1.591368
H       1.595230    1.052023    2.153908
H       0.305775    0.436515    3.188080
H       1.631401   -1.660924    3.558638
H       2.916859   -1.002096    2.524812
H       3.294023   -0.492602    4.749587
