15

C      -0.044610    1.509877    0.010901
C       0.014480    0.004028    0.024037
N       0.123775   -0.604994   -1.167177
C       0.179699   -1.930877   -1.210331
C       0.130669   -2.741103   -0.070987
O       0.196750   -4.090060   -0.243645
C       0.017478   -2.117859    1.166867
C      -0.040951   -0.728639    1.209814
H       0.854554    1.926415   -0.454638
H      -0.898756    1.856546   -0.579847
H      -0.133016    1.918889    1.020638
H       0.268134   -2.400260   -2.187281
H       0.152737   -4.523530    0.615068
H      -0.024369   -2.704995    2.080967
H      -0.129321   -0.217923    2.162767
