22

C       0.025911    1.639904   -0.068732
C      -0.030832    0.110636    0.006800
C       0.703255   -0.550970   -1.167623
C       0.724575   -2.105407   -1.181748
C       1.495215   -2.687893    0.008434
C      -0.706225   -2.683169   -1.253866
C       1.412459   -2.492824   -2.486355
O       2.427797   -3.131166   -2.585543
H       1.060639    1.999733   -0.053287
H      -0.437663    2.009339   -0.990210
H      -0.498725    2.098386    0.775110
H       0.408225   -0.220558    0.954878
H      -1.078722   -0.210069    0.022571
H       0.251337   -0.197301   -2.105422
H       1.741792   -0.193323   -1.178159
H       0.984497   -2.473993    0.951318
H       1.590683   -3.772613   -0.088937
H       2.507085   -2.276531    0.060360
H      -1.256551   -2.287339   -2.114753
H      -0.682006   -3.774322   -1.340542
H      -1.271994   -2.435949   -0.351871
H       0.881857   -2.121566   -3.396744
