19

C      -0.101137    1.404414    0.125735
C       1.312574    0.854222   -0.008049
C       2.046425    0.535635    1.250024
C       1.456386   -0.447000    1.936306
C       0.214124   -0.957395    1.228774
C       0.259592   -2.346371    0.622163
C      -0.020348   -2.333644   -0.681025
C      -0.295952   -0.941524   -1.211811
C       0.105494   -0.069803   -0.028130
H      -0.411982    1.795624    1.090140
H      -0.496683    1.944700   -0.729576
H       1.862940    1.089068   -0.913951
H       2.943190    1.062884    1.557162
H       1.775539   -0.821464    2.902708
H      -0.658986   -0.871130    1.894875
H       0.468859   -3.233337    1.209991
H      -0.078192   -3.213578   -1.312598
H       0.277376   -0.713855   -2.119098
H      -1.356806   -0.823931   -1.479459
