21

C       0.190120    1.549717    0.203377
C      -0.151271    0.081126   -0.080171
C       0.612886   -0.472708   -1.270554
O       0.344579    0.211270   -2.465746
C       1.995910   -1.045865   -1.110168
C       0.824053   -1.974534   -1.454405
C       0.343785   -2.973006   -0.407567
C       0.767044   -2.487743   -2.798732
C       0.704656   -2.983861   -3.892529
H       1.256331    1.675593    0.422820
H      -0.059468    2.183166   -0.653638
H      -0.374494    1.922613    1.062660
H       0.056643   -0.516402    0.811644
H      -1.224729   -0.011625   -0.284768
H       0.888484    1.005472   -2.482021
H       2.713873   -0.851350   -1.898528
H       2.415149   -1.132546   -0.112420
H       0.486516   -2.599958    0.608933
H      -0.717205   -3.203894   -0.543976
H       0.904815   -3.907369   -0.502855
H       0.646391   -3.396772   -4.868619
