18

C      -0.141446    1.502168   -0.087117
C       0.101991    0.036175    0.020681
C       0.413506   -1.020932   -0.972858
C       1.266321   -1.860807   -0.012618
C       0.330109   -2.983188    0.481588
O       0.954263   -3.683486    1.538518
C      -0.546738   -1.805101    0.964338
C       0.710145   -0.894744    1.112491
N      -0.932538   -1.010008   -0.266647
H       0.801916    2.058709   -0.117661
H      -0.700814    1.723147   -1.001706
H      -0.725484    1.871111    0.763625
H       0.403373   -1.000665   -2.055739
H       2.321193   -2.029207   -0.217107
H      -0.100031   -3.659836   -0.270090
H       0.279381   -4.193929    1.997511
H      -1.356050   -1.919480    1.685999
H       1.236984   -0.639632    2.026453
