17

C       0.092013    1.475874    0.019862
C      -0.073628   -0.053038    0.014633
C      -1.536839   -0.473377   -0.053093
O       0.613633   -0.631474   -1.116847
C       1.962278   -0.945198   -0.793927
C       1.986780   -1.209555    0.699509
O       2.845765   -1.714745    1.366974
C       0.635868   -0.648894    1.225689
O       0.265591   -0.672425    2.367316
H       1.145779    1.768644    0.068767
H      -0.334308    1.888162   -0.898770
H      -0.421076    1.910890    0.881953
H      -2.014100   -0.034450   -0.933352
H      -1.620364   -1.560899   -0.119446
H      -2.059675   -0.135557    0.845200
H       2.271952   -1.824440   -1.366229
H       2.653104   -0.120836   -1.036900
