21

C      -0.639670    1.391441    0.029476
C       0.015113    0.012008    0.010505
C       0.863664   -0.292884   -1.248675
C       1.704765   -1.513477   -0.837500
C       3.235191   -1.386989   -0.645983
O       3.123689   -1.589543    0.780518
C       1.691411   -1.573630    0.710506
C       0.999742   -0.263751    1.173054
O       1.993422    0.743544    1.277782
H       0.111824    2.185607   -0.044970
H      -1.322711    1.514441   -0.817029
H      -1.219823    1.551833    0.945558
H      -0.774328   -0.751192    0.081369
H       0.241443   -0.475390   -2.129125
H       1.505587    0.565910   -1.472711
H       1.403119   -2.431648   -1.343402
H       3.849391   -2.165022   -1.113689
H       3.649387   -0.399701   -0.885232
H       1.248411   -2.447648    1.201017
H       0.476092   -0.391290    2.131658
H       1.561053    1.549681    1.575077
