17

C       0.061332    1.578511    0.098186
O       1.442574    1.566096   -0.323322
C       1.418470    0.133673   -0.524048
C       2.294690   -0.738306    0.359071
C       2.170670   -0.617621    1.866903
O       1.024015    0.135008    2.252235
C       0.201498   -0.707451    1.380560
C       1.397429   -1.679335    1.158840
C      -0.012844    0.034887    0.059740
H      -0.064760    2.044285    1.078970
H      -0.578267    2.075594   -0.641397
H       1.555244   -0.114695   -1.583704
H       3.240742   -1.118658   -0.010387
H       3.011232   -0.646710    2.549627
H      -0.688993   -1.064128    1.900397
H       1.420400   -2.759283    1.184691
H      -0.790994   -0.418145   -0.557769
