16

C      -0.024018    1.512233    0.072553
C       0.289026    0.028212    0.009959
O       0.956459   -0.546279    0.848962
N      -0.248094   -0.626643   -1.071892
C      -0.216470   -2.068779   -1.143158
C      -1.623380   -2.624827   -1.412422
O      -2.581958   -1.924719   -1.596760
C       0.675899   -2.607714   -2.174482
C       1.355526   -3.084203   -3.043158
H      -0.176786    1.951426   -0.916615
H      -0.935448    1.663468    0.660907
H       0.794710    2.022419    0.580777
H      -0.969079   -0.177267   -1.616804
H       0.119469   -2.429803   -0.159666
H      -1.675075   -3.731045   -1.451664
H       1.982129   -3.490831   -3.798608
