16

C       0.060806    1.582971    0.080693
C       0.089183    0.087232   -0.012412
C      -0.888040   -0.854958    0.692676
C       0.585491   -0.966717    0.988377
N       1.274838   -1.627995   -0.137290
N       1.457344   -2.866640   -0.681547
C       1.180117   -2.605558   -1.956480
N       0.690996   -1.345674   -2.249323
C       0.766344   -0.784168   -1.062297
H       1.059783    2.007597   -0.056294
H      -0.594246    2.006083   -0.687929
H      -0.318470    1.904611    1.055233
H      -1.494325   -0.401550    1.473598
H      -1.382386   -1.646976    0.139625
H       1.056956   -0.850029    1.954484
H       1.347086   -3.346015   -2.726314
