22

C      -1.333106    0.578026   -1.309317
C      -0.122586   -0.248631   -0.902137
C       1.302761    0.208972   -1.313118
C       1.832838   -0.348136    0.035806
C       2.971303    0.353099    0.760104
C       0.377137   -0.295234    0.584588
C       0.042913    0.944292    1.408934
O       0.062918   -1.472368    1.312808
H      -1.221382    1.631027   -1.030276
H      -1.481729    0.541201   -2.394300
H      -2.252322    0.204554   -0.842481
H      -0.264774   -1.290761   -1.208632
H       1.723991   -0.202795   -2.233199
H       1.379344    1.301585   -1.357629
H       2.073094   -1.409743   -0.086814
H       2.776447    1.423176    0.888016
H       3.136988   -0.080277    1.752516
H       3.906105    0.255500    0.197097
H       0.323218    1.870375    0.898750
H      -1.034783    0.997430    1.608054
H       0.565058    0.911157    2.369681
H      -0.815409   -1.367728    1.694429
