18

O       0.020701    1.406451   -0.190183
C       0.018388    0.009175    0.072886
C      -1.405444   -0.476861    0.029377
C      -1.670768   -2.001521   -0.058231
O      -2.463017   -1.840699   -1.263101
C      -2.288975   -0.414489   -1.237567
C      -3.335873    0.416398   -0.450292
N      -3.743334   -0.378416    0.733803
C      -2.474073    0.375278    0.768113
H       0.929104    1.719056   -0.149772
H       0.614821   -0.538885   -0.673752
H       0.452707   -0.209007    1.064002
H      -0.774898   -2.605209   -0.253658
H      -2.251834   -2.435104    0.759082
H      -1.960043    0.013670   -2.187713
H      -3.975009    1.202900   -0.832729
H      -4.438366    0.176638    1.231786
H      -2.282443    1.139217    1.510672
