20

C       0.157574    1.604351   -0.192437
C       0.032372    0.103371    0.021798
C       0.903012   -0.870563   -0.826488
N       1.251961   -1.674041    0.393723
C       2.634734   -1.411310    0.921762
C       2.101745   -0.295857    1.850087
O       1.628061   -0.778583    3.125725
C       0.257658   -0.877261    2.653124
C       0.699438   -0.544455    1.234052
H       1.203245    1.926690   -0.142951
H      -0.235572    1.894480   -1.172520
H      -0.400510    2.162595    0.567098
H      -1.021129   -0.195846   -0.019871
H       0.387412   -1.454305   -1.594024
H       1.770581   -0.377899   -1.285822
H       3.062286   -2.268523    1.449362
H       3.337369   -1.072028    0.151251
H       2.642847    0.650629    1.939037
H      -0.169936   -1.875504    2.798678
H      -0.381686   -0.122598    3.131773
