25

C      -1.556433   -0.161270   -0.308911
C      -0.060606    0.072489   -0.044042
C       0.328328   -0.469342    1.334119
O      -0.472159    0.195089    2.308865
C       0.771599   -0.541023   -1.187470
C       2.279596   -0.229825   -1.277572
C       2.832228   -0.803117   -2.592870
C       2.583067    1.272552   -1.187348
O       2.900523   -0.917954   -0.178982
H      -1.871533    0.312754   -1.244495
H      -1.774571   -1.233572   -0.388783
H      -2.157895    0.244282    0.506646
H       0.105094    1.157175   -0.019298
H       0.154553   -1.559005    1.355506
H       1.395261   -0.306974    1.518178
H      -0.206985   -0.124133    3.175630
H       0.669668   -1.633925   -1.157079
H       0.319907   -0.220002   -2.133844
H       2.390471   -0.310187   -3.464896
H       3.918374   -0.662027   -2.646466
H       2.625984   -1.875346   -2.657191
H       2.289387    1.677420   -0.216224
H       3.657287    1.451741   -1.316926
H       2.060130    1.833442   -1.968943
H       3.844338   -0.727993   -0.210618
