25

C      -0.083235    1.408561    0.148238
O      -0.045021    0.003319    0.140641
C      -1.305880   -0.581569   -0.109407
C      -1.159510   -2.087711   -0.078862
C      -0.869318   -2.768184    1.285787
C      -1.930713   -3.865455    0.949196
C      -1.285226   -5.138167    0.395423
C      -2.927726   -4.199355    2.054379
C      -2.456664   -2.933640   -0.192299
H       0.930657    1.764917    0.347401
H      -0.418376    1.815287   -0.819756
H      -0.755483    1.797123    0.930479
H      -2.036857   -0.255830    0.653156
H      -1.696130   -0.251330   -1.089274
H      -0.421441   -2.381132   -0.831273
H       0.153258   -3.107377    1.469823
H      -1.180030   -2.138529    2.126168
H      -0.749601   -5.680347    1.183329
H      -2.041740   -5.813467   -0.021198
H      -0.566303   -4.913144   -0.399606
H      -3.395236   -3.293670    2.455440
H      -3.727294   -4.852465    1.684072
H      -2.436445   -4.717688    2.886636
H      -3.341777   -2.367910    0.119270
H      -2.669413   -3.402013   -1.157548
