25

C      -1.028696    0.549648   -1.346108
C       0.153233   -0.329279   -0.964454
C       1.559277   -0.004944   -1.535973
C       2.178008   -0.457760   -0.186560
C       3.400201    0.268612    0.355435
C       0.768599   -0.268773    0.478499
C       0.565641    1.030301    1.221339
C      -0.598347    1.186145    2.170238
C       0.807132    1.096951    2.710233
H      -0.830651    1.606617   -1.142243
H      -1.249827    0.454917   -2.415464
H      -1.932887    0.270191   -0.794336
H      -0.089889   -1.374360   -1.189312
H       1.876461   -0.520666   -2.446747
H       1.686960    1.073167   -1.690250
H       2.391969   -1.531845   -0.235811
H       3.234770    1.348648    0.419634
H       3.667322   -0.085159    1.357233
H       4.266160    0.104885   -0.296256
H       0.463288   -1.089911    1.137568
H       0.833975    1.928739    0.671338
H      -1.107849    2.142517    2.213560
H      -1.250837    0.330693    2.313035
H       1.098232    0.181619    3.215566
H       1.258952    1.992317    3.122899
