13

C       0.150618    1.455412   -0.002143
C      -0.003674   -0.033277    0.032597
N      -0.099186   -0.649999   -1.095057
O      -0.242985   -2.024550   -1.111295
N      -0.290200   -2.782582    0.039570
C      -0.194692   -2.161046    1.148585
F      -0.241334   -2.899477    2.246271
C      -0.040054   -0.725062    1.325167
N       0.056589   -0.092609    2.433846
H       1.076799    1.745578    0.503130
H       0.159223    1.809251   -1.033081
H      -0.667068    1.927427    0.550948
H       0.010404   -0.744272    3.220390
