17

O      -0.088898    1.405933    0.143623
C      -0.046848   -0.005942    0.000652
C      -1.464161   -0.497940   -0.041665
C      -2.583327   -0.168406   -1.051399
C      -3.230749   -1.130279   -0.039707
C      -1.921759   -2.006393    0.082230
C      -1.973252   -1.855265    1.600303
O      -1.737083   -2.482697    2.588005
C      -2.473809   -0.478820    1.181429
H       0.814659    1.735422    0.147133
H       0.471264   -0.300930   -0.926362
H       0.479083   -0.486432    0.841792
H      -2.945380    0.862696   -1.058847
H      -2.449296   -0.540257   -2.072082
H      -4.245031   -1.525331   -0.001090
H      -1.626916   -2.828271   -0.568011
H      -2.780503    0.398710    1.745615
