19

C      -0.026360    1.550120    0.123475
C       0.024764    0.052257    0.030245
C      -0.899310   -0.870190    0.782534
C       0.588455   -0.961209    1.019858
C       1.324014   -1.671197   -0.148559
N       0.315526   -2.114109   -1.153209
C       0.787261   -0.703960   -1.125381
C       1.394547   -0.047617   -2.325550
H       0.956442    2.006341   -0.044752
H      -0.720154    1.979203   -0.610334
H      -0.365898    1.861285    1.116749
H      -1.448963   -0.386626    1.585365
H      -1.424819   -1.672204    0.280844
H       1.045188   -0.774171    1.983649
H       2.296635   -2.144438   -0.092087
H       0.831390   -2.579797   -1.900295
H       0.629969    0.227329   -3.062473
H       1.935642    0.864492   -2.053308
H       2.105918   -0.721032   -2.816555
