13

O       0.106877    1.346880    0.095762
C       0.077104   -0.010213    0.020730
C       0.139451   -0.710983   -1.181915
C       0.100999   -2.103150   -1.140414
O       0.155186   -2.884370   -2.251709
C       0.001830   -2.736758    0.101506
N      -0.057251   -2.060167    1.245905
C      -0.021084   -0.730270    1.214691
H       0.175550    1.718465   -0.789773
H       0.216335   -0.183583   -2.130965
H       0.221838   -2.328541   -3.035019
H      -0.028961   -3.821316    0.146443
H      -0.070374   -0.195045    2.158269
