20

C      -0.019070    1.526059   -0.059868
C       1.399258    2.106836    0.002051
C       2.047355    1.767348    1.353661
C       1.879794    0.317058    1.700592
C       2.547959   -0.494345    2.593200
C       1.923529   -1.771204    2.570080
C       0.892547   -1.702391    1.663484
N       0.862202   -0.430489    1.142741
C       0.022217   -0.000206    0.034122
H      -0.617246    1.930870    0.766229
H      -0.521725    1.807722   -0.990672
H       1.998893    1.687766   -0.816466
H       1.376452    3.191705   -0.141883
H       3.111118    2.027113    1.350129
H       1.584203    2.395408    2.129584
H       3.382315   -0.192051    3.208798
H       2.194041   -2.636296    3.156174
H       0.184373   -2.445644    1.331706
H      -0.982469   -0.412410    0.174684
H       0.415112   -0.413987   -0.905690
