20

C       0.130802    1.520793   -0.239817
C       0.023437    0.035092    0.031243
C       1.218469   -0.885803   -0.159093
C       0.637761   -0.641188    1.224675
N       1.299323    0.037222    2.306132
C       2.420456    0.985047    2.113781
C       3.106505    0.318597    3.314941
O       4.048178    0.572056    4.001952
C       2.061272   -0.802178    3.261105
H       1.132900    1.909011   -0.041991
H      -0.097730    1.734840   -1.289446
H      -0.573365    2.088054    0.378405
H      -0.936174   -0.382731   -0.264218
H       1.083361   -1.856742   -0.623749
H       2.156980   -0.404772   -0.415925
H       0.048486   -1.461671    1.626027
H       3.015514    0.837054    1.198680
H       2.163615    2.045260    2.203381
H       1.536924   -1.053228    4.189607
H       2.486549   -1.722171    2.826407
