21

C       0.022811    1.556507    0.076264
C      -0.078756    0.031582   -0.101766
C       0.732732   -0.485689   -1.251961
N       0.149899   -0.762668   -2.416056
N       1.160959   -1.172142   -3.208709
C       2.370592   -1.175890   -2.588615
C       3.623206   -1.589117   -3.289922
C       2.134593   -0.728016   -1.299624
C       3.131946   -0.542897   -0.197009
H       1.056039    1.869526    0.258285
H      -0.328337    2.072474   -0.822390
H      -0.583833    1.893013    0.923247
H       0.240446   -0.462590    0.824574
H      -1.123492   -0.248546   -0.268141
H       0.956134   -1.462129   -4.149743
H       4.042155   -0.778852   -3.899106
H       4.388607   -1.882758   -2.567363
H       3.449351   -2.443791   -3.952835
H       3.394404    0.511267   -0.043109
H       2.746525   -0.917122    0.757948
H       4.063714   -1.078314   -0.404030
