18

C      -0.224249    1.339673   -0.168355
N       0.206019   -0.041646   -0.015211
C       1.578500   -0.484245   -0.101934
C       0.790043   -0.584487    1.177304
C       1.765087    0.408870    1.902075
C       2.492266   -0.269414    3.021754
O       3.269192   -1.190029    2.872806
C       2.582080    0.504106    0.538970
O       3.909648    0.084465    0.562599
H       0.411979    2.088556    0.323563
H      -0.262283    1.575704   -1.235692
H      -1.236055    1.435695    0.236644
H       1.849419   -1.246705   -0.825285
H       0.326637   -1.438141    1.660258
H       1.300849    1.330074    2.266570
H       2.259154    0.095722    4.044343
H       2.581281    1.508227    0.103968
H       3.959966   -0.693862    1.140517
