19

O      -0.138580    1.435357   -0.104502
C      -0.045373    0.041336   -0.023574
C      -0.453170   -0.665416    1.238175
C      -1.348021   -0.715048   -0.000131
C      -2.644143    0.079901   -0.015533
O      -3.754147   -0.764667    0.246103
C      -3.937296   -1.746231   -0.754839
C      -2.660679   -2.446353   -1.135803
C      -1.470048   -1.982591   -0.758193
H       0.535985    1.812771    0.469811
H       0.767829   -0.393845   -0.606721
H       0.080122   -1.563657    1.530807
H      -0.803936   -0.050340    2.060774
H      -2.653349    0.855088    0.751854
H      -2.760478    0.572038   -0.994705
H      -4.659170   -2.463696   -0.346470
H      -4.405968   -1.302657   -1.654109
H      -2.751940   -3.351690   -1.729317
H      -0.556430   -2.516697   -1.009182
