15

C      -0.392840    1.359010   -0.018932
N      -0.001129   -0.040976   -0.008051
N       0.066369   -0.668116   -1.216359
C       0.405670   -1.891117   -1.236906
O       0.718175   -2.666415   -0.155271
C       0.673082   -2.104848    1.098850
N       0.949584   -2.764944    2.136665
C       0.278524   -0.660355    1.193451
N       0.196318   -0.015867    2.290930
H       0.394553    1.977218    0.421906
H      -0.563618    1.640115   -1.056647
H      -1.301351    1.503867    0.572800
H       0.474516   -2.434157   -2.168150
H       1.198159   -3.728144    1.910460
H       0.439610   -0.643868    3.056973
