29

C       0.073836    1.674970    0.174926
C      -0.001178    0.154275    0.000429
C       0.687513   -0.594783    1.149356
C       0.688891   -2.146739    1.103407
C      -0.756114   -2.681342    1.111951
C       1.413511   -2.641639   -0.163052
C       1.444393   -2.621065    2.374192
C       1.599313   -4.132351    2.591966
C       2.363300   -4.455215    3.880637
H       1.113522    2.019578    0.211040
H      -0.420832    2.196604   -0.650563
H      -0.409263    1.991992    1.106119
H      -1.053619   -0.145087   -0.068616
H       0.458354   -0.117717   -0.957102
H       1.731237   -0.254052    1.207040
H       0.220914   -0.281645    2.094347
H      -1.313938   -2.341354    0.234366
H      -0.778384   -3.775094    1.100531
H      -1.297719   -2.344966    2.003624
H       2.446331   -2.276001   -0.196971
H       1.444585   -3.734420   -0.205274
H       0.908710   -2.301138   -1.071982
H       2.446619   -2.169155    2.364100
H       0.936535   -2.196101    3.251840
H       0.613887   -4.611231    2.632313
H       2.125352   -4.584525    1.742943
H       2.466496   -5.535535    4.023774
H       3.370653   -4.023992    3.863531
H       1.848299   -4.050724    4.759368
