16

C      -0.025226    1.476802    0.040961
N       0.000071    0.030549    0.012154
C      -1.115636   -0.812782    0.028830
C      -0.820390   -2.131701   -0.003030
C      -1.745337   -3.303684    0.001931
C       0.643973   -2.221277   -0.046029
O       1.364986   -3.188267   -0.083805
C       1.155643   -0.733617   -0.033650
O       2.288603   -0.327283   -0.057734
H       1.011508    1.817106    0.017853
H      -0.553863    1.883771   -0.827961
H      -0.502830    1.849265    0.953816
H      -2.098620   -0.357974    0.064685
H      -1.604729   -3.920582   -0.892446
H      -1.554039   -3.953080    0.863277
H      -2.791364   -2.986652    0.037975
