14

O      -0.059919    0.014760   -0.056411
C      -0.026362    1.209303    0.012882
N      -0.994004    2.184134    0.088460
C      -0.067009    3.326183    0.052875
C       1.100009    2.308712    0.030383
C       1.754750    2.519433   -1.302911
C       1.143865    3.457447   -2.043902
C      -0.004610    4.041966   -1.313383
O      -0.779647    4.887016   -1.694739
H      -1.980113    2.146262   -0.128932
H      -0.162254    4.015167    0.894276
H       1.777773    2.256145    0.883167
H       2.605126    1.926457   -1.620156
H       1.403929    3.757691   -3.050877
