15

C      -0.002662    1.497885    0.117094
C       0.028082    0.014667   -0.045312
C      -0.068564   -0.755474   -1.175536
N       0.021629   -2.035888   -0.726270
N       0.167601   -2.056220    0.622586
N       0.171580   -0.829407    1.030970
C      -0.024367   -3.235154   -1.514991
N       0.093642   -4.345141   -0.759852
O      -0.155919   -3.171251   -2.713452
H       0.922269    1.860168    0.576622
H      -0.122997    1.993797   -0.848786
H      -0.829589    1.803273    0.765792
H      -0.188565   -0.535846   -2.221641
H       0.198450   -4.271381    0.239460
H       0.072131   -5.236730   -1.221689
