16

C      -0.169656    1.631303    0.042518
C       0.026775    0.125079   -0.006162
C       0.895335   -0.595467   -1.077927
C       2.275531    0.081439   -1.020576
C       2.378844    0.091639    0.523071
O       3.235418    0.532821    1.235887
C       1.062880   -0.620819    0.882638
O       1.084587   -1.689770   -0.117816
H       0.773211    2.184445    0.005285
H      -0.789451    1.966123   -0.795763
H      -0.681712    1.919329    0.966207
H      -0.924814   -0.406381    0.076313
H       0.501983   -0.913725   -2.042773
H       3.051546   -0.541902   -1.470947
H       2.336661    1.087604   -1.443497
H       0.895754   -0.937340    1.910132
