15

O      -0.038348    0.021773    0.375512
C      -0.033462    1.191542    0.079934
C       1.229122    1.981862   -0.023826
C       1.586811    2.909687   -1.178018
C       0.378023    3.690099   -1.702016
N      -0.005968    4.073099   -0.300969
C       1.263538    3.487211    0.192746
C       2.089002    4.124976    1.163639
N       2.746908    4.665762    1.947663
H      -0.967045    1.749725   -0.119397
H       2.095696    1.455670    0.364226
H       2.542707    2.808264   -1.673343
H       0.694771    4.547038   -2.302941
H      -0.395413    3.136250   -2.241574
H      -0.021709    5.079346   -0.175870
