14

O      -0.013419    0.004575   -0.229452
C       0.005352    1.180380   -0.011466
O      -1.135510    1.920854    0.175071
C      -0.752528    3.255210    0.534526
C      -0.090304    3.240367    1.944253
C       1.255008    3.114280    1.232654
C       0.648482    3.518680   -0.089918
C       1.171116    2.119223    0.060675
H      -1.588767    3.921104    0.339235
H      -0.181944    4.212394    2.435694
H      -0.417308    2.445440    2.620722
H       2.229855    3.359929    1.634546
H       0.944739    4.235091   -0.843343
H       2.103797    1.807215   -0.388244
