21

O      -0.061071    1.431459   -0.056689
C       0.028009    0.013462    0.002459
C      -1.387532   -0.547577   -0.000598
C      -2.197440   -0.205572   -1.270689
C      -3.248944   -1.332088   -1.408943
O      -3.618404   -1.612214   -2.753430
C      -2.605744   -2.548701   -0.771243
C      -1.186621   -2.864362   -1.169075
C      -1.456850   -2.070784    0.087627
H       0.831167    1.788383   -0.084974
H       0.584111   -0.387781   -0.860018
H       0.554557   -0.313558    0.913962
H      -1.903960   -0.130816    0.874242
H      -2.643424    0.790294   -1.223859
H      -1.553459   -0.225831   -2.156881
H      -4.145826   -1.073520   -0.822533
H      -4.055851   -0.831439   -3.107559
H      -3.250123   -3.361213   -0.456000
H      -0.861829   -3.890784   -1.039821
H      -0.761134   -2.377112   -2.039244
H      -1.244880   -2.539536    1.042883
