15

O      -0.114671   -0.104436    0.004050
C      -0.069936    1.086986    0.009436
C      -1.009206    2.290588    0.030471
C       0.014029    3.053507    0.956398
C       0.029876    4.294603    0.024248
C       1.203415    5.144088    0.009974
C       2.179210    5.847128   -0.001718
C      -0.015699    3.063096   -0.919567
C       0.951836    2.220754   -0.000962
H      -2.093166    2.381765    0.048113
H       0.033091    3.019799    2.044972
H      -0.888616    4.891369    0.041855
H       3.040101    6.468993   -0.011401
H      -0.031143    3.040519   -2.008486
H       2.038045    2.235358   -0.018102
