21

C      -0.028469    1.619010    0.085026
C      -0.081775    0.081055    0.037806
C       0.698109   -0.570751    1.205873
N       2.106683   -0.263929    1.118849
C       2.951259   -1.015658    0.162718
C       4.088022   -1.006117    1.212311
C       2.983730   -0.662026    2.240565
C      -1.465800   -0.400629    0.032637
N      -2.558008   -0.778996    0.044624
H       1.015613    1.932830    0.134956
H      -0.498632    2.057504   -0.798279
H      -0.548026    1.994307    0.971495
H       0.376050   -0.260129   -0.900216
H       0.313893   -0.174579    2.153233
H       0.505812   -1.660191    1.206756
H       2.573138   -2.033445   -0.031642
H       3.128400   -0.516786   -0.795586
H       4.635607   -1.936480    1.361201
H       4.793276   -0.187301    1.061448
H       3.179296    0.127942    2.972883
H       2.622857   -1.557430    2.772070
