19

C      -0.039220    1.540524    0.033813
C       0.013781    0.011564   -0.067322
C       0.830396   -0.498354   -1.222728
C       1.661863   -1.467352   -0.827861
C       1.484307   -1.740858    0.649929
N       0.679765   -0.603332    1.091469
C      -0.161205   -0.863459    2.240820
C       2.565251   -2.196020   -1.644543
N       3.311429   -2.807248   -2.286147
H       0.970770    1.950910    0.113847
H      -0.531743    1.970560   -0.844500
H      -0.606419    1.848867    0.917096
H      -1.026581   -0.359140   -0.184054
H       0.728481   -0.124319   -2.233336
H       0.977715   -2.714952    0.794260
H       2.438487   -1.795891    1.190011
H       0.452329   -1.200592    3.082351
H      -0.667977    0.054901    2.551628
H      -0.933263   -1.633916    2.052684
