19

C      -0.027410    1.537696    0.013994
C       0.014364    0.022046   -0.009182
C       1.041510   -0.698602   -0.956307
C       1.228764   -1.745969    0.142776
C      -0.093074   -2.472442    0.640156
O      -0.025068   -1.709690    1.905965
C       0.757309   -0.751470    1.214126
C      -1.330653   -1.973840   -0.050710
C      -1.305437   -0.657095   -0.274489
H       0.966747    1.959972    0.194859
H      -0.388987    1.939305   -0.940051
H      -0.695057    1.901635    0.803029
H       0.679613   -1.002739   -1.941587
H       1.959828   -0.110425   -1.064285
H       2.136629   -2.344477    0.221249
H      -0.047914   -3.547139    0.819228
H       1.374292   -0.127685    1.864997
H      -2.185610   -2.615727   -0.226720
H      -2.147132   -0.087345   -0.657404
