21

C      -0.683097    1.227174    0.321923
C       0.348650    0.183509   -0.128047
C       1.060953   -0.482460    1.039596
C       2.044358    0.393168    1.792155
O       0.219227   -1.288002    1.891982
C       1.231882   -1.946294    1.131614
C       0.779296   -2.951499    0.081810
C       0.588294   -4.285296    0.642582
C       0.447422   -5.378559    1.120570
H      -0.217091    2.060906    0.855658
H      -1.212556    1.642442   -0.540435
H      -1.419290    0.768575    0.988215
H      -0.156550   -0.569858   -0.737913
H       1.101897    0.653138   -0.773343
H       1.553840    1.289949    2.183166
H       2.473474   -0.150146    2.637278
H       2.858460    0.715913    1.133994
H       2.070511   -2.306947    1.730856
H      -0.153435   -2.611248   -0.377494
H       1.532681   -2.995197   -0.716705
H       0.310721   -6.344796    1.538732
