20

O      -0.708554    0.928082   -0.668237
C       0.227498    0.871485    0.089843
C       1.362053    1.883126    0.146864
C       1.233753    3.040473   -0.867920
C       0.698591    3.896730    0.305119
N       1.209471    2.880707    1.252576
C       0.485889    2.588494    2.447498
C       1.224217    1.890364    3.561503
C       0.872431    3.351159    3.689987
H       0.298937    0.055814    0.844567
H       2.313919    1.336877    0.194935
H       2.196892    3.377986   -1.251494
H       0.541139    2.855468   -1.687471
H       1.126383    4.894100    0.448933
H      -0.398293    3.978528    0.299505
H      -0.578132    2.352939    2.344673
H       0.680981    1.169345    4.161731
H       2.264221    1.644757    3.380763
H       1.679603    4.067033    3.589197
H       0.085499    3.637238    4.378505
