20

C      -0.083400    1.510283   -0.010105
C       0.027604   -0.020729    0.053948
C       0.722586   -0.487256    1.334243
N      -1.268988   -0.699663   -0.048062
C      -1.955205   -0.673439   -1.252470
C      -1.564092   -0.372343   -2.548762
C      -2.714736   -0.626797   -3.330669
N      -3.743498   -1.044603   -2.609683
N      -3.255106   -1.062668   -1.337343
H       0.908756    1.973197   -0.012768
H      -0.612940    1.826748   -0.912316
H      -0.629797    1.893744    0.859876
H       0.616557   -0.368262   -0.802960
H       0.148572   -0.187298    2.219975
H       0.825740   -1.575210    1.347621
H       1.715947   -0.037910    1.420047
H      -1.859131   -0.519009    0.755041
H      -0.601994   -0.018090   -2.877421
H      -2.825646   -0.510934   -4.399522
H      -3.839849   -1.408044   -0.596135
