25

C      -0.069668    1.483795    0.142537
C       0.066604   -0.036421    0.015620
C       0.660498   -0.534549   -1.322169
C       2.150015   -0.155663   -1.440652
C       2.773912   -0.393555   -2.818564
C       0.398221   -2.051649   -1.488030
C      -0.915111   -2.102639   -2.281940
C      -0.774895   -0.867499   -3.173769
O      -0.068879    0.096090   -2.400601
H       0.901776    1.986576    0.173470
H      -0.630251    1.885891   -0.704788
H      -0.600293    1.744739    1.063505
H       0.683476   -0.430703    0.833698
H      -0.925925   -0.489039    0.133593
H       2.258962    0.905263   -1.192331
H       2.703306   -0.709846   -0.671159
H       3.808099   -0.036212   -2.836874
H       2.793380   -1.453000   -3.094229
H       2.213622    0.146088   -3.586348
H       1.200771   -2.525078   -2.060781
H       0.338574   -2.559001   -0.521895
H      -1.041629   -3.026657   -2.851763
H      -1.778155   -1.996922   -1.616564
H      -0.210069   -1.109574   -4.088108
H      -1.733833   -0.433267   -3.475930
