15

O       0.068533    1.512386   -0.221759
C       0.047867    0.123881   -0.059724
C       0.635961   -0.579851   -1.201604
C       1.104379   -1.196485   -2.121356
C       0.764491   -0.229545    1.280394
O       0.998014    0.658280    2.066211
N       1.026121   -1.566625    1.452023
C       1.564734   -2.217824    2.565240
N       1.805285   -1.647668    3.667842
H       0.404077    1.849300    0.628588
H      -0.991786   -0.234145    0.059276
H       1.520608   -1.717821   -2.948438
H       0.883574   -2.136603    0.630232
H       1.732456   -3.277868    2.338479
H       2.189374   -2.321232    4.328723
