16

N      -0.121995   -1.233852   -0.011211
C      -0.083323   -0.078850    0.025814
C      -0.038922    1.375144    0.026558
N      -0.343866    1.995834    1.409046
C       1.115386    2.387928    1.414338
C       2.371020    3.325586    1.381212
N       2.805894    2.068893    0.547438
C       2.139547    1.264334    1.671015
C       1.335101    2.193036   -0.035184
H      -0.711396    1.736453   -0.755855
H      -0.955908    2.797636    1.261578
H       2.298661    4.243187    0.793813
H       2.982732    3.449755    2.278308
H       2.695020    1.287895    2.610708
H       1.890289    0.243193    1.386191
H       1.256322    3.022304   -0.739200
