17

O       0.339759    1.290537    0.090444
C       0.021882   -0.056160   -0.010406
C       0.393464   -0.856701   -1.284244
C      -0.974995   -1.604858   -1.210214
C      -1.397042   -0.730859   -0.001993
O      -1.130980   -1.370231    1.260766
C       0.179911   -0.804486    1.350131
C       1.311702   -1.796413    1.435929
O       1.208231   -2.982012    1.256430
H       0.320450    1.680582   -0.789798
H       0.455253   -0.190808   -2.152194
H       1.301758   -1.462542   -1.255824
H      -1.597813   -1.491433   -2.099947
H      -0.905039   -2.660119   -0.944340
H      -2.356709   -0.210140   -0.017405
H       0.262722   -0.081127    2.174127
H       2.296197   -1.318787    1.653314
