19

C      -0.148841    1.513198    0.185324
C       0.034824    0.007042    0.063915
C      -1.244537   -0.713152   -0.331400
O       1.115580   -0.314949   -0.867132
C       1.984553   -0.753072    0.192018
C       0.849188   -0.653097    1.216868
O       1.132472    0.160599    2.344029
C       0.735854   -0.260301    3.563951
O       0.912553    0.379167    4.554680
H       0.782134    2.004405    0.475137
H      -0.470851    1.916003   -0.779644
H      -0.909226    1.757138    0.933824
H      -1.609052   -0.336049   -1.291842
H      -1.070179   -1.788145   -0.433659
H      -2.027605   -0.553020    0.417659
H       2.400277   -1.749471    0.006851
H       2.801029   -0.047551    0.390776
H       0.440452   -1.615576    1.541543
H       0.242370   -1.251488    3.533910
