17

C       0.474058    1.372428    0.335554
C      -0.069138    0.021740   -0.094421
O       0.773505   -0.496240   -1.111614
C       0.360775   -1.750174   -1.584759
C       1.319453   -2.181926   -2.641298
C       2.429905   -1.598600   -3.167928
N       2.913299   -2.466133   -4.118904
N       2.203741   -3.493154   -4.203553
O       1.124705   -3.352082   -3.236181
H       1.492032    1.271376    0.721707
H       0.493078    2.065269   -0.510146
H      -0.155072    1.800150    1.121389
H      -0.100227   -0.676746    0.757839
H      -1.099521    0.117377   -0.474368
H       0.338436   -2.502948   -0.777792
H      -0.658688   -1.711215   -2.006128
H       2.897698   -0.657840   -2.942429
