14

O       0.298784    1.292713   -0.398307
C       0.021410   -0.019867   -0.038849
C       0.638531   -0.441533    1.285422
N       1.711647    0.108156    1.691233
N      -0.171411   -1.410023    1.828810
C      -1.506208   -1.461582    1.242383
C      -1.459764   -0.358413    0.165247
O      -2.410958    0.123512   -0.378123
H       1.080370    1.532933    0.125344
H       0.374417   -0.739436   -0.806062
H       2.010622   -0.212890    2.611711
H      -0.003390   -1.752097    2.761716
H      -1.731060   -2.433444    0.784101
H      -2.300914   -1.235465    1.962035
