13

C      -0.247538    1.500320    0.083739
C      -0.011047    0.008712    0.124058
N       1.247216   -0.498359   -0.404055
C       0.973531   -0.671109    1.039846
C       1.858841    0.091015    1.962576
O       2.030416   -0.205761    3.118800
H       0.684652    2.055164    0.205232
H      -0.683008    1.785091   -0.879816
H      -0.943257    1.805332    0.871983
H      -0.902928   -0.589206   -0.063261
H       1.124039   -1.382866   -0.888494
H       0.689334   -1.650382    1.417594
H       2.366100    0.963297    1.497012
