25

C      -0.082604    1.386650    0.035983
O      -0.109103   -0.016327   -0.044631
C       0.681071   -0.521162   -1.099803
C       0.591312   -2.040806   -1.097535
C       1.418971   -2.687556   -2.213931
C       1.330368   -4.207887   -2.223885
C      -0.008548   -4.893247   -2.629010
C       0.815365   -5.970114   -3.384915
C       2.025418   -4.997708   -3.369219
H       0.936416    1.768881    0.210433
H      -0.469200    1.858481   -0.882131
H      -0.716963    1.680602    0.876104
H       0.332176   -0.116330   -2.066754
H       1.730715   -0.197855   -0.980284
H       0.926334   -2.408241   -0.119767
H      -0.462631   -2.327716   -1.194142
H       1.085578   -2.304438   -3.189140
H       2.471742   -2.387575   -2.112339
H       1.661787   -4.600231   -1.254190
H      -0.679112   -5.225531   -1.832745
H      -0.578808   -4.264164   -3.321598
H       0.996367   -6.851609   -2.762933
H       0.444337   -6.304686   -4.356547
H       2.073672   -4.400837   -4.286491
H       3.017762   -5.413101   -3.175238
