11

N       0.021864    1.430288    0.171816
C       0.011839    0.033076    0.041792
C      -1.059181   -0.810159   -0.005036
O      -0.636943   -2.113797   -0.042553
C       0.714216   -2.088069   -0.027469
C       1.175100   -0.811685    0.026216
H       0.772892    1.862281   -0.351336
H      -0.855314    1.855630   -0.099463
H      -2.125125   -0.658702   -0.008616
H       1.203025   -3.048048   -0.058772
H       2.206351   -0.495417    0.059408
