16

C       0.170957    1.519502    0.014329
O       1.183800    0.535578   -0.178063
C      -0.156430    0.079894    0.015019
C      -0.453465   -0.666907    1.267029
C       0.425894   -0.649248    2.354846
N       0.199700   -1.281020    3.507621
C      -0.937276   -1.974337    3.616172
C      -1.875935   -2.073722    2.592838
C      -1.625404   -1.410985    1.397632
H       0.207733    2.050322    0.964296
H      -0.065696    2.126606   -0.858494
H      -0.625379   -0.322693   -0.884066
H       1.364151   -0.108268    2.269827
H      -1.102183   -2.479406    4.564941
H      -2.777390   -2.660540    2.729910
H      -2.330940   -1.469285    0.573467
