23

C      -0.157564    1.535295   -0.000604
C      -0.180145    0.017987    0.198872
C       0.953490   -0.483517    1.104193
C       0.947641   -1.989307    1.260527
C       1.611068   -2.713489    2.400669
C       2.358771   -2.007528    3.509421
C       0.082680   -2.681880    2.318505
C      -0.687957   -1.914080    3.250755
C      -1.347868   -1.278529    4.032292
H       0.785163    1.862742   -0.453749
H      -0.972091    1.864722   -0.653293
H      -0.263964    2.061234    0.954718
H      -1.140015   -0.284955    0.633889
H      -0.112489   -0.481973   -0.776708
H       1.920347   -0.170572    0.685910
H       0.868237    0.001060    2.082178
H       0.967688   -2.518927    0.310071
H       2.034329   -3.679990    2.138277
H       1.839958   -1.107722    3.845784
H       2.465728   -2.665535    4.378189
H       3.363975   -1.720885    3.181518
H      -0.393919   -3.607938    2.009789
H      -1.931922   -0.723144    4.723207
