21

O      -0.029419    1.398429    0.071600
C       0.025115   -0.012429    0.019152
C       0.310229   -0.621229   -1.394046
C      -0.973550   -1.474715   -1.285458
C      -0.841859   -2.751858   -0.408204
C      -1.240533   -1.943153    0.871793
C      -0.129755   -1.651766    1.887263
C       0.825933   -0.651236    1.188657
C      -1.388497   -0.672260   -0.004374
H       0.867648    1.734946   -0.031164
H       0.199500    0.159071   -2.152265
H       1.261229   -1.143486   -1.546551
H      -1.593618   -1.557442   -2.178014
H      -1.576618   -3.519143   -0.663979
H       0.146876   -3.223324   -0.394532
H      -2.152179   -2.315181    1.344097
H      -0.569349   -1.185140    2.776255
H       0.380771   -2.560385    2.223571
H       1.727721   -1.149996    0.818819
H       1.149741    0.134703    1.876981
H      -2.249144   -0.010007    0.074753
