12

O       0.004200   -0.161521   -0.002965
C      -0.012036    1.034491    0.003755
C       1.258919    1.898981   -0.068678
C       2.490616    1.125285    0.012069
N       3.479235    0.533771    0.078582
C      -1.305978    1.863294    0.085701
C      -2.516232    1.057406   -0.003919
N      -3.488441    0.440059   -0.077224
H       1.239335    2.462325   -1.010910
H       1.238064    2.649554    0.731073
H      -1.301549    2.416343    1.034205
H      -1.305627    2.623094   -0.705565
