18

N      -0.045696    1.208195   -0.414941
C       0.045366    0.034281    0.047915
C      -1.072706   -0.967665   -0.089314
C      -1.235025   -1.807626    1.183974
C       0.064675   -2.531314    1.478806
O       0.411260   -3.495415    0.452210
C       1.613097   -2.778686    0.098257
C       1.334975   -1.702490    1.167163
O       1.167836   -0.361724    0.734676
H       0.813375    1.728736   -0.223874
H      -1.976491   -0.414888   -0.346093
H      -0.855400   -1.643275   -0.925378
H      -1.494367   -1.169586    2.037606
H      -2.039572   -2.540198    1.064669
H       0.056323   -3.000789    2.469256
H       2.515115   -3.380971    0.257299
H       1.596942   -2.412955   -0.935516
H       2.072476   -1.649463    1.968033
