21

O       0.117826    1.351039    0.199309
C       0.040811   -0.037179   -0.080109
C      -1.394112   -0.581028    0.001056
C      -1.499749   -2.101821   -0.049460
C      -1.132728   -2.873591    1.198715
C      -2.577520   -2.544559    0.915101
C      -3.158959   -1.298751    1.567110
C      -2.146607   -0.162490    1.292811
O      -1.183320   -0.011619    2.349444
H      -0.077615    1.426004    1.141387
H       0.424742   -0.173328   -1.096831
H       0.687954   -0.615077    0.593113
H      -1.962894   -0.166264   -0.840922
H      -1.375616   -2.590778   -1.009695
H      -0.827318   -3.905984    1.066110
H      -0.631532   -2.351584    2.005487
H      -3.253434   -3.355059    0.665349
H      -4.118625   -1.051423    1.097232
H      -3.348768   -1.408283    2.642473
H      -2.657751    0.796752    1.147732
H      -1.662995    0.190861    3.158718
