18

C       0.272058    1.395503   -0.254143
N      -0.148755    0.034899    0.106470
C       0.529852   -0.509977    1.234297
C       1.945816   -1.024946    1.056710
C       0.849231   -1.984529    1.400043
C       0.674833   -2.284046    2.875980
O       0.474288   -1.016917    3.532275
C       0.233635   -0.020888    2.629502
O      -0.185760    1.052890    2.960126
H       1.326889    1.377870   -0.546116
H      -0.308623    1.722879   -1.121111
H       0.147354    2.124044    0.556479
H      -1.149723    0.025937    0.273293
H       2.292224   -1.033417    0.029766
H       2.697528   -0.781153    1.800804
H       0.517849   -2.707011    0.665755
H      -0.204676   -2.909956    3.063830
H       1.548164   -2.760595    3.331980
