17

O       0.375033    1.479900   -0.409889
C      -0.028902    0.231913    0.046935
C       0.096900   -0.028898    1.593276
C      -1.318704   -0.600481    1.560752
C      -1.819262   -1.852200    2.132119
O      -2.227696   -0.571554    2.638335
C      -1.578693   -0.004329    0.179202
C       0.630645   -0.861354   -0.753935
O       1.396017   -0.620998   -1.656848
H       0.989427    1.309609   -1.142425
H       0.912144   -0.662464    1.951646
H       0.132749    0.937158    2.103239
H      -2.593653   -2.415090    1.612282
H      -1.186496   -2.435740    2.799835
H      -2.070780    0.969490    0.243606
H      -2.079706   -0.618570   -0.573229
H       0.373390   -1.901894   -0.467494
