13

O       0.048675    0.079391   -0.197983
C      -0.029277    1.253316   -0.058468
C      -1.097806    2.293889    0.070342
C      -0.066104    3.155199    0.758318
N       1.045029    2.267792    0.183695
C       0.937150    3.061372   -1.108247
C      -0.443929    3.536815   -0.636093
C      -1.240043    4.626024   -1.099989
N      -1.863605    5.517053   -1.494522
H      -2.167674    2.233833    0.215246
H      -0.061672    3.656120    1.713768
H       1.668496    3.870782   -1.118838
H       1.011714    2.458360   -2.017575
