18

C      -0.054241    1.456757    0.020019
N       0.014232    0.006413   -0.079739
C      -1.262061   -0.699218   -0.011794
C      -1.175474   -2.123282   -0.547409
C      -0.038469   -2.875871    0.145383
C       1.275141   -2.150064   -0.069793
O       2.327004   -2.712580   -0.219713
C       1.249437   -0.593779   -0.073444
O       2.296237    0.022275   -0.072368
H       0.959789    1.850113   -0.023255
H      -0.647299    1.867525   -0.805212
H      -0.523327    1.760007    0.964980
H      -1.627177   -0.711592    1.028370
H      -1.992710   -0.122762   -0.590952
H      -2.133017   -2.627133   -0.385678
H      -1.000680   -2.098944   -1.629531
H      -0.225474   -2.909409    1.229153
H       0.070458   -3.907301   -0.198341
