20

C      -0.486144    1.420857   -0.073397
C       0.020142   -0.029523   -0.026071
O       0.652045   -0.372064   -1.270800
C       1.883162    0.133330   -1.617811
N       2.037983    0.935756   -2.585401
C       3.060421   -0.448650   -0.882112
C       3.233651    0.063594    0.556904
C       2.098681   -0.223968    1.501896
C       0.792196   -0.282918    1.245753
H       0.353066    2.119928   -0.135064
H      -1.132000    1.566399   -0.943931
H      -1.057604    1.656050    0.829405
H      -0.849923   -0.695133   -0.017854
H       1.123844    1.189268   -2.967456
H       2.937627   -1.537338   -0.859440
H       3.955974   -0.210391   -1.459096
H       4.149797   -0.378463    0.963922
H       3.418599    1.147322    0.529955
H       2.398068   -0.384519    2.535923
H       0.129309   -0.476471    2.088019
