22

C      -1.489630    0.495125   -0.429921
C      -0.090509    0.015667    0.001462
C       0.675764   -0.591431   -1.149177
C       0.723069   -2.090554   -1.307764
C       1.620526   -2.780663   -0.266134
C       1.620688   -4.296566   -0.415572
O       2.459804   -4.833569    0.595083
N       1.291559    0.082387   -2.045123
O       1.196390    1.470411   -1.821371
H      -1.405845    1.265801   -1.199289
H      -2.086437   -0.329104   -0.834000
H      -2.031333    0.914549    0.423191
H       0.473923    0.865028    0.396332
H      -0.185269   -0.722717    0.803860
H      -0.298947   -2.487815   -1.226014
H       1.082351   -2.318269   -2.315962
H       2.648187   -2.414440   -0.365475
H       1.295365   -2.536938    0.751908
H       0.590069   -4.678776   -0.323473
H       1.979228   -4.571004   -1.421264
H       2.482691   -5.789193    0.491300
H       1.714551    1.824693   -2.551126
