15

N      -0.963095    1.458065   -0.597887
C      -0.217298    0.283741   -0.117420
C      -1.173455   -0.842516    0.330676
C      -1.988902   -0.579710    1.607537
N      -2.365969    0.709294    1.809796
O      -2.269927   -1.493236    2.357900
C       0.729672   -0.226999   -1.129479
N       1.451840   -0.598304   -1.952446
H      -0.322848    2.214410   -0.820810
H      -1.451798    1.225629   -1.458849
H       0.372170    0.606052    0.748696
H      -1.870206   -1.065329   -0.487376
H      -0.606998   -1.756238    0.516501
H      -2.171186    1.414532    1.110632
H      -2.945284    0.910049    2.608495
