21

C       0.065235    1.569988    0.204677
C       1.598765    1.678669    0.136622
O       1.984009    0.739535   -0.862617
C       1.184632   -0.418859   -0.669330
C      -0.196505    0.107393   -0.228029
C       1.302298   -1.293657   -1.934282
C       2.302816   -2.407996   -1.544227
C       2.793300   -1.958342   -0.156637
O       1.708215   -1.212303    0.386391
H      -0.321044    1.795089    1.201348
H      -0.396558    2.269535   -0.497246
H       1.963013    2.661887   -0.170614
H       2.055190    1.417736    1.101007
H      -0.575525   -0.516018    0.583411
H      -0.907316    0.055748   -1.055372
H       0.328458   -1.706826   -2.205101
H       1.651883   -0.678328   -2.764879
H       1.796867   -3.374588   -1.473311
H       3.122876   -2.513314   -2.258121
H       3.008891   -2.781622    0.528578
H       3.686731   -1.325006   -0.240988
