18

C       0.062560    1.311213   -0.388033
C      -0.012904   -0.182576   -0.059532
C      -1.443405   -0.656613    0.140118
N      -2.322324   -0.581368   -1.074280
C      -2.786679   -1.979529   -0.865277
C      -1.735994   -2.171711    0.245499
O      -0.935142   -3.002266   -0.649951
C      -1.884210   -2.939817   -1.659398
O      -1.854240   -3.483924   -2.711906
H       1.097033    1.626527   -0.551024
H      -0.503529    1.532654   -1.298201
H      -0.347873    1.921951    0.424521
H       0.438416   -0.768501   -0.865958
H       0.557179   -0.400640    0.852939
H      -1.897137   -0.149634    1.004273
H      -3.067187    0.100574   -1.005125
H      -3.856405   -2.175277   -0.806927
H      -1.871291   -2.650846    1.212537
