15

N       0.052713    1.431589    0.085130
C       0.008108    0.028504    0.010287
C      -1.048824   -0.833756    0.028528
O      -0.628946   -2.124901    0.013175
C       0.747621   -2.097317   -0.020288
C       1.466628   -3.297729   -0.042205
C       2.129698   -4.306622   -0.053242
C       1.182219   -0.792465   -0.020209
N       2.481466   -0.298119   -0.102983
H       0.637467    1.823635   -0.646063
H      -0.865702    1.853365    0.026219
H      -2.115359   -0.682520    0.061637
H       2.702136   -5.200237   -0.073077
H       3.182631   -1.011550    0.053154
H       2.633838    0.488468    0.517973
