19

C       0.008289    1.494804   -0.105775
O       1.355834    1.549913    0.418750
C       1.443731    0.106051    0.480967
C       0.039452   -0.012760   -0.064472
C      -0.800174   -0.997719   -0.372955
C      -2.212522   -0.831751   -0.927070
C      -2.750151   -2.280338   -1.108813
C      -1.608104   -3.150745   -0.646515
C      -0.550801   -2.430483   -0.248013
H      -0.715276    1.988816    0.560066
H      -0.067123    1.956688   -1.101724
H       2.252049   -0.284359   -0.154364
H       1.603495   -0.252188    1.508383
H      -2.839205   -0.252683   -0.240886
H      -2.201701   -0.284236   -1.875232
H      -3.657858   -2.461673   -0.519577
H      -3.021694   -2.493168   -2.150437
H      -1.662102   -4.233392   -0.646666
H       0.382410   -2.837382    0.123860
