21

C      -0.110803    1.520982    0.036809
C       0.004675   -0.004707    0.028516
C       0.752580   -0.557299    1.245959
O       0.032784   -0.156383    2.406091
C       0.521547   -0.773769    3.588057
C       0.213357   -2.270473    3.555812
O      -1.172215   -2.524168    3.783326
C       0.663954   -2.842499    2.232112
C       0.916747   -2.055269    1.188019
H       0.878926    1.991127    0.021653
H      -0.662793    1.875871   -0.838528
H      -0.630596    1.863700    0.934434
H      -0.991801   -0.461919    0.003563
H       0.529628   -0.340494   -0.874021
H       1.758250   -0.091309    1.273949
H       1.605037   -0.602916    3.697680
H       0.002359   -0.301996    4.426426
H       0.733446   -2.767573    4.383049
H      -1.643223   -2.058623    3.081524
H       0.743490   -3.922960    2.153878
H       1.251953   -2.468148    0.239302
