17

C      -0.029243    1.379670   -0.200111
O      -0.074766   -0.054136   -0.232998
C      -1.295578   -0.585856   -0.201338
O      -2.325765    0.041493   -0.148663
C      -1.240842   -2.132040   -0.240591
O      -0.182116   -2.714027   -0.293036
C      -2.561775   -2.796240   -0.208607
C      -2.690864   -4.108010   -0.977875
C      -2.637364   -4.142615    0.506224
H       1.027497    1.641923   -0.233163
H      -0.558240    1.798641   -1.059821
H      -0.491999    1.755764    0.715805
H      -3.419270   -2.140359   -0.162260
H      -3.635738   -4.284900   -1.478114
H      -1.805158   -4.421291   -1.518829
H      -1.715547   -4.479249    0.966855
H      -3.544083   -4.344115    1.064408
