18

C       0.121679    1.452399   -0.442403
C       0.090833   -0.026896   -0.126910
C       1.301204   -0.834445   -0.342182
O       0.917820   -0.437568    0.976725
C      -1.251118   -0.721575   -0.171362
C      -2.418345   -0.156307    0.699341
N      -3.149136    0.074323   -0.549880
C      -2.171166   -0.398522   -1.387877
O      -2.088349   -0.496075   -2.582574
H       1.137049    1.838550   -0.329519
H      -0.211516    1.630723   -1.469526
H      -0.528941    2.020104    0.230831
H       1.214751   -1.898507   -0.557712
H       2.198473   -0.356387   -0.732668
H      -1.116214   -1.796620   -0.035293
H      -2.884602   -0.886658    1.367026
H      -2.187026    0.754432    1.258922
H      -4.077382    0.422572   -0.738431
