13

N      -0.047981    1.320356   -0.279745
C       0.011798    0.074173   -0.059793
N       1.222439   -0.653320   -0.032573
C       1.533285   -1.371017    0.968729
N       0.777256   -1.666664    2.093501
C      -0.609734   -1.716690    2.238714
O      -1.108432   -2.097695    3.272775
C      -1.453977   -1.397042    1.034732
N      -1.200326   -0.643323    0.048323
H       0.898608    1.694660   -0.364618
H       2.525521   -1.821202    1.000640
H       1.262317   -2.074342    2.884013
H      -2.425752   -1.890683    1.081897
