16

C      -0.322471    1.578293   -0.020377
C       0.084234    0.113644    0.073418
C       0.749213   -0.544637   -1.217362
N       1.959173   -0.679159   -0.386021
N       3.119537   -1.361242   -0.157340
C       3.199095   -1.180823    1.162968
O       4.256747   -1.628739    1.849371
N       2.169060   -0.511831    1.788795
C       1.414514   -0.235080    0.738174
H       0.494973    2.189220   -0.415199
H      -1.190766    1.697673   -0.676017
H      -0.589231    1.967048    0.966637
H      -0.741241   -0.498005    0.449603
H       0.311796   -1.501933   -1.511235
H       0.874611    0.103424   -2.088408
H       4.098753   -1.397664    2.772832
