18

C      -0.568772    1.439129   -0.011540
C      -0.223914   -0.028450    0.069418
C       1.096388   -0.527647   -0.408828
N       0.784317   -0.535253    1.016122
C       1.473170    0.333589    1.878483
C       0.982532    0.924966    3.030739
N       2.028254    1.594993    3.582704
N       3.166904    1.479256    2.884010
C       2.837169    0.714579    1.844189
H       0.324949    2.065423    0.041174
H      -1.083837    1.650533   -0.954393
H      -1.234744    1.735909    0.806496
H      -1.076498   -0.699570   -0.020330
H       1.192933   -1.504647   -0.874723
H       1.798630    0.221987   -0.770287
H       0.004141    0.909257    3.482095
H       2.027244    2.143488    4.425241
H       3.584400    0.446869    1.112088
