12

C      -0.050704    1.574283   -0.102263
C       0.035023    0.058198    0.130496
O       0.685191   -0.227045    1.334783
C      -1.341565   -0.587317    0.126795
O      -1.756590   -1.231463    1.060869
C      -2.149719   -0.407645   -1.088675
N      -2.766120   -0.259653   -2.055694
H       0.960932    1.984910   -0.082695
H      -0.504007    1.805194   -1.070098
H      -0.632062    2.049297    0.692701
H       0.579259   -0.392524   -0.719979
H       0.099597   -0.809597    1.841328
