15

O      -0.005013   -0.067377    0.004546
C      -0.017070    1.123913   -0.001636
C      -1.009379    2.283567    0.027881
C      -0.016502    3.100197    0.943286
C      -0.048739    4.326744    0.016492
C      -0.057276    3.112444   -0.944365
C      -0.087889    3.092895   -2.374930
C      -0.113804    3.093892   -3.577478
C       0.952188    2.303203   -0.014367
H      -2.096204    2.327343    0.038956
H       0.007410    3.049057    2.029760
H      -0.954902    4.938254    0.031124
H       0.844797    4.956269   -0.007635
H      -0.136649    3.088981   -4.639163
H       2.037389    2.368719   -0.050069
