21

O      -0.105370    1.469834   -0.134245
C      -0.007616    0.063027   -0.058804
C      -1.372657   -0.553286    0.245706
O      -2.297631   -0.084051   -0.756231
C      -2.693856   -1.176904   -1.582098
C      -2.675220   -2.390080   -0.652605
C      -1.457615   -2.084463    0.213559
C      -0.230707   -2.966739    0.151709
C      -1.088304   -2.934849    1.394197
H      -0.867742    1.640643   -0.701874
H       0.383947   -0.367553   -0.995104
H       0.707461   -0.166587    0.739566
H      -1.727522   -0.151584    1.203908
H      -3.679468   -0.943328   -1.993994
H      -1.991742   -1.312924   -2.419331
H      -3.587961   -2.409498   -0.045925
H      -2.596729   -3.341520   -1.185312
H      -0.275315   -3.848143   -0.479907
H       0.752089   -2.512069    0.202014
H      -0.685756   -2.440664    2.273281
H      -1.709690   -3.796409    1.616577
