17

O       0.028537   -0.007713    0.036405
C      -0.043088    1.206993   -0.005362
C      -1.340899    1.913111   -0.083113
C      -1.408888    3.250082   -0.036841
C      -0.181208    4.080484    0.190393
C       0.473525    3.845369    1.610949
C       1.632917    3.129510    0.929843
C       1.118776    3.515310   -0.442694
C       1.191795    2.059224   -0.072424
H      -2.217909    1.282926   -0.187762
H      -2.371290    3.753778   -0.090250
H      -0.355958    5.134762   -0.022805
H       0.795356    4.792895    2.049817
H      -0.120255    3.290754    2.342645
H       2.652166    3.100123    1.295010
H       1.637015    3.934340   -1.296484
H       2.038560    1.510268   -0.472775
