19

N      -0.025249   -1.158876    0.081621
C      -0.039551   -0.002552    0.101597
C      -0.029501    1.452992    0.137535
C      -0.535128    2.059927    1.471849
C       0.145261    3.445987    1.470975
N       1.463576    3.254038    0.868195
C       2.477924    2.560224    1.713889
C       2.589953    1.421441    0.670716
C       1.393669    2.081409   -0.054296
H      -0.669867    1.809256   -0.677419
H      -1.625411    2.103780    1.519168
H      -0.189724    1.453410    2.314525
H      -0.433563    4.151584    0.861335
H       0.240173    3.877156    2.471429
H       3.376555    3.161977    1.878932
H       2.096578    2.234825    2.690463
H       3.511281    1.432139    0.086658
H       2.421462    0.408518    1.039869
H       1.550504    2.326174   -1.108208
