23

C      -0.037561    1.591439    0.025829
C       0.043324    0.082805    0.071293
C       1.335199   -0.662405   -0.183325
O       2.515819    0.095035   -0.128553
C       2.978827    0.104018    1.233674
C       3.862892    1.318576    1.449845
C       1.696704    0.031121    2.092311
C       0.709471   -0.717064    1.187664
C       0.025814   -1.949577    1.732254
H       0.941404    2.048106    0.184562
H      -0.393685    1.921984   -0.955658
H      -0.730198    1.983188    0.779116
H      -0.835019   -0.418361   -0.332499
H       1.374701   -1.515276   -0.856541
H       3.569562   -0.811852    1.402997
H       3.295120    2.243627    1.308587
H       4.270825    1.314831    2.465676
H       4.698659    1.316977    0.744619
H       1.869536   -0.514735    3.024576
H       1.347278    1.034499    2.360095
H      -0.686741   -1.693639    2.525612
H      -0.531051   -2.474257    0.949110
H       0.751910   -2.655173    2.153811
