20

C       0.286021    1.088199   -0.420148
C      -0.214226   -0.177516    0.280308
C       0.834564   -0.776953    1.203654
O       0.279361   -1.941943    1.816081
C       1.142941   -2.588490    2.669518
C       0.883661   -4.029810    2.912467
C       2.121079   -3.632296    2.105963
C       2.147135   -3.876610    0.694403
N       2.183856   -4.062423   -0.447452
H       1.169759    0.881959   -1.033458
H      -0.484561    1.500026   -1.077665
H       0.556338    1.866672    0.302081
H      -1.113798    0.040894    0.867116
H      -0.495018   -0.935586   -0.458912
H       1.738965   -1.047822    0.640782
H       1.127550   -0.055561    1.983874
H       1.536999   -1.982386    3.486995
H       1.048259   -4.440593    3.901292
H       0.067420   -4.469839    2.352398
H       3.084777   -3.723815    2.595493
