23

C       0.763659   -2.193652   -1.445878
C       0.217244   -1.357458   -0.276523
C       0.946532   -0.006999   -0.181708
C      -1.304900   -1.199926   -0.360686
C      -1.840963   -0.401900   -1.537333
C      -2.148203   -2.314375    0.173838
N      -2.120212   -1.024564    0.853828
C      -1.535172   -0.966129    2.183209
H       1.836274   -2.375099   -1.320204
H       0.261782   -3.164186   -1.510363
H       0.629230   -1.681734   -2.404473
H       0.436871   -1.915841    0.640054
H       0.840541    0.572469   -1.104503
H       0.562851    0.603025    0.641568
H       2.017745   -0.161250   -0.014874
H      -1.572041   -0.861278   -2.494422
H      -2.930081   -0.345907   -1.476658
H      -1.456905    0.623347   -1.535382
H      -3.086480   -2.587728   -0.304877
H      -1.626858   -3.147727    0.646968
H      -0.699325   -1.660749    2.361349
H      -1.185065    0.051185    2.386782
H      -2.317724   -1.201535    2.912541
