19

C      -0.080117    1.428389    0.026225
C      -0.011188   -0.077394   -0.026727
C       1.009988   -0.753448   -0.942971
O       0.431948   -2.012371   -1.313123
C      -0.612223   -2.262975   -0.386840
C      -0.082916   -2.334047    1.085699
C      -0.438603   -0.855124    1.236309
C      -1.260480   -0.889447   -0.051373
O      -2.485358   -0.376698   -0.415649
H       0.835255    1.855098    0.451050
H      -0.214640    1.849791   -0.975723
H      -0.923333    1.759892    0.638400
H       1.180816   -0.167924   -1.854538
H       1.981506   -0.908835   -0.452377
H      -1.223182   -3.086099   -0.756789
H      -0.709168   -2.969892    1.718953
H       0.963318   -2.637489    1.191420
H      -0.624744   -0.320479    2.161164
H      -3.173997   -0.851530    0.061981
