14

C       0.002652    1.493779   -0.050573
C       0.025165   -0.006116   -0.023114
N       0.046132   -0.686731   -1.172836
C       0.065793   -2.014083   -1.114207
O       0.086888   -2.705936   -2.271002
C       0.065084   -2.703898    0.101331
N       0.044258   -2.033664    1.251829
C       0.025004   -0.725219    1.175784
F       0.004281   -0.047203    2.324807
H       0.869962    1.908166    0.474125
H       0.007966    1.842397   -1.083812
H      -0.887536    1.881428    0.455958
H       0.083467   -2.051648   -2.983093
H       0.081239   -3.787843    0.133601
