25

C       0.038884    1.455321   -0.469264
C      -0.070762    0.103442    0.250457
C      -1.465742   -0.519853    0.204299
C      -2.488117    0.283681    0.997564
C      -1.913993   -1.177647   -1.084391
C      -1.591401   -2.043579    0.115598
C      -0.353239   -2.928795    0.071559
C      -2.742696   -2.744261    0.811247
O      -3.071575   -3.910244    0.057766
H       1.071597    1.817817   -0.451696
H      -0.268128    1.366878   -1.516810
H      -0.584017    2.225465   -0.004828
H       0.659470   -0.577968   -0.191976
H       0.229761    0.226503    1.300315
H      -2.481883    1.331861    0.681501
H      -3.509748   -0.075788    0.862344
H      -2.263690    0.265644    2.071303
H      -2.954050   -1.077548   -1.379347
H      -1.221872   -1.200036   -1.920974
H       0.398794   -2.572153   -0.634651
H       0.120188   -3.005672    1.058392
H      -0.646445   -3.934924   -0.239406
H      -2.439297   -3.018728    1.835544
H      -3.618327   -2.089619    0.893090
H      -3.712759   -4.417957    0.563417
