20

C       0.173847    1.392043   -0.099526
C       0.101357   -0.122627   -0.039716
C      -1.218609   -0.736780   -0.478916
C      -1.642253   -0.351803   -1.912238
O      -0.663139   -0.624366   -2.895634
C      -2.928337   -1.001021   -2.249431
N      -3.917123   -1.540905   -2.507237
C       1.368726   -0.898420   -0.305696
C       0.817974   -0.816109    1.097154
H       1.116656    1.752290    0.322484
H       0.119614    1.760050   -1.130006
H      -0.641339    1.854046    0.470509
H      -1.162478   -1.830453   -0.413003
H      -2.025730   -0.428553    0.198718
H      -1.800457    0.730477   -1.964114
H      -0.475942   -1.570010   -2.883776
H       1.297377   -1.848759   -0.824052
H       2.267470   -0.338625   -0.540429
H       1.339997   -0.197130    1.818896
H       0.367884   -1.706764    1.523445
