18

N      -2.380789   -0.403967   -2.647761
C      -2.683479   -1.243756   -1.625358
O      -3.526705   -2.123082   -1.743292
C      -1.940958   -1.008352   -0.311591
C      -1.173848   -2.252644    0.103975
O      -0.093497   -2.568250   -0.736892
C      -1.077585   -2.634089    1.567554
C      -1.949560   -3.430381    0.621490
O      -3.324890   -3.328555    0.771762
H      -2.797286   -0.586185   -3.547228
H      -1.592422    0.216859   -2.603436
H      -1.265062   -0.147246   -0.374676
H      -2.700441   -0.782344    0.441571
H       0.666417   -2.047941   -0.452683
H      -0.151341   -3.088474    1.902493
H      -1.584736   -2.009693    2.294761
H      -1.564901   -4.403556    0.315417
H      -3.672797   -3.094183   -0.108809
