19

C       0.043840    1.587740   -0.005125
C       0.032647    0.062987   -0.047961
C       0.762491   -0.498959   -1.281625
C       1.007700   -1.979508   -1.156560
C       0.881395   -2.641785   -0.009961
C       0.530597   -1.927576    1.285911
N       0.580773   -0.466065    1.210765
C      -0.806205   -2.362504    1.751662
N      -1.846761   -2.726844    2.097702
H       1.069516    1.969491    0.072077
H      -0.396356    2.005934   -0.915568
H      -0.519879    1.951843    0.857169
H      -1.009878   -0.279941   -0.088224
H       0.177681   -0.296661   -2.188085
H       1.720045    0.025751   -1.426198
H       1.298375   -2.516388   -2.056140
H       1.026728   -3.716298    0.047662
H       1.237671   -2.238949    2.066047
H       1.550747   -0.177165    1.302531
