19

C       0.060937    1.509910   -0.009097
C       0.139628   -0.002775    0.082154
O       0.280615   -0.569020    1.148400
C       0.037828   -0.738978   -1.212267
C       0.688386   -2.111054   -1.325352
C      -0.796505   -2.021503   -1.329738
C      -1.629722   -2.551708   -0.169758
C      -1.933049   -3.970389   -0.329799
C      -2.179452   -5.136875   -0.482566
H       0.874055    1.892389   -0.637047
H      -0.877341    1.814020   -0.487205
H       0.128734    1.947578    0.987202
H       0.044166   -0.112374   -2.097929
H       1.212169   -2.344726   -2.244969
H       1.159646   -2.466219   -0.414899
H      -1.278971   -2.132934   -2.296530
H      -1.096262   -2.381157    0.769977
H      -2.568595   -1.986416   -0.100747
H      -2.396885   -6.169033   -0.602135
