17

N      -0.199580    1.443243   -0.061402
C      -0.005080    0.005574    0.012292
C       0.784567   -0.579328   -1.192872
O       0.204331   -0.169211   -2.417809
C       0.724278   -0.351361    1.288189
O       1.400455    0.397031    1.940032
O       0.548546   -1.681043    1.574400
C       1.178924   -2.195726    2.683698
N       1.042535   -3.423173    2.915734
H       0.613535    1.908081    0.332510
H      -0.267846    1.703556   -1.041205
H      -0.978964   -0.503913    0.040061
H       1.800420   -0.169465   -1.190332
H       0.849740   -1.672502   -1.113690
H      -0.619247   -0.654427   -2.537520
H       1.735146   -1.443159    3.242294
H       1.551006   -3.673265    3.762823
