19

C       0.332975    1.440181   -0.551246
C       1.594967    1.556731    0.351551
C       1.476702    0.043314    0.688604
C       0.060043    0.029901    0.054182
O      -0.065365   -1.088337   -0.812929
C       1.198183   -1.664762   -1.065735
C       1.980183   -1.107092   -2.271201
O       2.828611   -0.318455   -1.404369
C       2.257649   -0.916282   -0.214074
H      -0.451881    2.185582   -0.403562
H       0.575189    1.390619   -1.614074
H       2.516550    1.859925   -0.144994
H       1.434348    2.183330    1.231490
H       1.566630   -0.248731    1.736953
H      -0.786247    0.008650    0.745613
H       1.111459   -2.751561   -0.998382
H       2.560013   -1.856219   -2.825107
H       1.400366   -0.495909   -2.970373
H       3.001904   -1.514494    0.320687
