16

C      -0.011313    1.469067    0.005763
C       0.007237   -0.033721   -0.007431
N      -0.004966   -0.638022   -1.195667
C       0.016961   -1.984298   -1.130415
N       0.044363   -2.648417   -2.312378
N       0.037687   -2.718324   -0.013803
C       0.042081   -1.987683    1.108320
N       0.029086   -2.663036    2.284940
N       0.033852   -0.645381    1.179404
H       0.862836    1.848552    0.543849
H      -0.017154    1.860567   -1.011436
H      -0.894678    1.826660    0.544175
H      -0.144975   -2.122527   -3.147657
H      -0.119115   -3.640011   -2.303534
H       0.221901   -3.649252    2.266183
H       0.211890   -2.140180    3.123660
