23

C      -0.108088    1.577629    0.107881
C      -0.063685    0.053490   -0.045299
O       0.504567   -0.545697    1.135808
C      -1.492471   -0.521864   -0.076964
O      -2.193326   -0.248935    1.117617
C       0.708265   -0.404705   -1.296650
C       2.184890    0.001265   -1.328948
C       2.921496   -0.569523   -2.533770
O       4.269947   -0.130608   -2.467456
H       0.886588    1.989834    0.309856
H      -0.481956    2.052023   -0.805118
H      -0.774554    1.843857    0.931100
H       1.241417   -0.001893    1.429270
H      -2.060425   -0.072534   -0.897996
H      -1.427763   -1.606038   -0.261855
H      -1.586473   -0.506038    1.823949
H       0.637329   -1.498553   -1.347174
H       0.196137   -0.013113   -2.185894
H       2.293291    1.091455   -1.351323
H       2.690180   -0.353806   -0.422979
H       2.858374   -1.670026   -2.521038
H       2.436063   -0.227676   -3.462995
H       4.742736   -0.494916   -3.221273
