21

C      -0.752681    1.394633   -0.001183
C       0.000254    0.067242   -0.001450
O      -0.918704   -1.033067   -0.069382
C       0.926219   -0.143451   -1.191077
C       2.278464    0.525740   -1.183729
C       2.144209   -0.904934   -0.722300
C       1.988544   -1.151616    0.771297
C       0.909045   -0.151773    1.246874
O       1.448889    1.101766    1.661741
H      -0.063847    2.240403    0.013805
H      -1.381686    1.458901   -0.894052
H      -1.397987    1.478837    0.881983
H      -1.605734   -0.878040    0.588043
H       0.443344   -0.360716   -2.136838
H       2.737883    0.688184   -2.153008
H       2.480375    1.295271   -0.448943
H       2.579464   -1.690063   -1.330158
H       1.631824   -2.173582    0.936916
H       2.918884   -1.031931    1.340967
H       0.300275   -0.577101    2.058041
H       2.098201    0.928970    2.350457
