15

C      -0.041228    1.571100    0.050671
C      -0.017315    0.024344    0.030902
C       0.714501   -0.494379    1.199031
N       1.295759   -0.887198    2.116793
C      -1.386845   -0.571847   -0.055783
C      -2.023646   -1.367011   -0.948830
N      -3.329427   -1.584211   -0.525005
C      -3.412313   -0.924715    0.581968
O      -2.278770   -0.277742    0.941878
H       0.975667    1.967215    0.095671
H      -0.527999    1.938930   -0.855717
H      -0.596398    1.931745    0.918793
H       0.525311   -0.310933   -0.860590
H      -1.641563   -1.799467   -1.859984
H      -4.256347   -0.826632    1.246204
