16

C       0.007693    1.383321    0.009157
O       0.005516   -0.025059    0.001865
C      -1.289231   -0.574186    0.011294
C      -1.158745   -2.092313    0.002143
C      -2.537417   -2.778174    0.011645
C      -2.438524   -4.235875    0.003121
N      -2.348014   -5.387747   -0.003730
H       1.050772    1.707453    0.000989
H      -0.500930    1.797197   -0.875885
H      -0.484083    1.787938    0.907895
H      -1.846843   -0.241331    0.905383
H      -1.863692   -0.232086   -0.868526
H      -0.596289   -2.399609   -0.884539
H      -0.579597   -2.408783    0.874741
H      -3.109233   -2.477317    0.897763
H      -3.125891   -2.468190   -0.860309
