16

O       0.277940    0.824459   -1.322401
C       0.174453    1.487483   -0.315027
N       1.201179    1.752108    0.544556
C       2.495891    1.154181    0.374105
C       3.547333    1.727253   -0.508933
C       3.443038    3.256677   -0.560252
C       3.645375    3.253251    0.974687
O       3.842973    4.117891    1.779428
C       3.715203    1.749168    1.045413
H      -0.772073    1.961168    0.013452
H       0.993370    2.215822    1.415705
H       2.482373    0.066723    0.393715
H       4.092898    1.112708   -1.211522
H       4.299275    3.736006   -1.043159
H       2.517172    3.681117   -0.954631
H       4.333056    1.163397    1.714967
