20

C      -0.008744    1.391522   -0.119048
O       0.008022   -0.006647    0.054579
C       0.709381   -0.534049    1.184562
C       2.163410   -0.047246    1.246410
C      -0.036710   -0.202202    2.487074
C       0.650583   -2.066571    0.956851
C       1.366851   -2.531548   -0.223931
C       1.964205   -2.933684   -1.186278
H       0.987267    1.803910   -0.330792
H      -0.649878    1.585014   -0.982996
H      -0.428575    1.925833    0.745428
H       2.219048    1.022205    1.467672
H       2.702528   -0.574505    2.039646
H       2.672686   -0.240613    0.299406
H      -1.078085   -0.531687    2.424356
H       0.434616   -0.697718    3.341522
H      -0.028312    0.872639    2.688451
H       1.045114   -2.569831    1.847721
H      -0.406236   -2.346205    0.874291
H       2.483232   -3.285260   -2.043001
