16

O       0.097862    1.410519   -0.074867
C       0.013821    0.040361   -0.027128
C       0.797787   -0.785120   -1.063023
N       0.078770   -2.092312   -0.904353
C      -1.315900   -1.664747   -1.330302
C      -1.356171   -0.838012   -0.053333
C      -0.404662   -1.934868    0.559522
C       0.320856   -0.778373    1.224156
O       0.642039   -0.491780    2.343582
H       0.067624    1.742979    0.831257
H       0.704776   -0.415663   -2.086317
H       1.858170   -0.883455   -0.814063
H      -1.369936   -1.173386   -2.306630
H      -1.991221   -2.523650   -1.311729
H      -2.228326   -0.423059    0.449746
H      -0.717432   -2.853356    1.046103
