19

C      -0.191885    1.491444   -0.111566
C       0.075773    0.005448    0.062268
O       1.002848   -0.471283   -0.961965
C       2.110658   -1.056841   -0.236569
C       1.511743   -1.823736    0.947901
C       2.393041   -1.215836    2.079165
C       1.156517   -0.568444    2.784777
C       0.886376   -0.419299    1.271920
C       2.402798   -0.137560    0.954377
H       0.727859    2.070696    0.010318
H      -0.591202    1.690311   -1.110037
H      -0.924164    1.837684    0.625872
H      -0.858924   -0.562731   -0.031508
H       2.834440   -1.435250   -0.957940
H       0.958830   -2.763582    0.964757
H       3.260924   -1.674152    2.552820
H       0.496175   -1.241305    3.340670
H       1.334841    0.352011    3.349087
H       2.873238    0.845604    0.981560
