17

C      -0.117880    1.385697    0.257498
N      -0.056861   -0.037907   -0.000059
C       0.451272   -0.565899   -1.027182
C       0.492088   -2.074003   -1.260120
N       1.148422   -2.293521   -2.548437
C       1.444988   -1.143911   -2.999933
N       1.085474   -0.042084   -2.191105
C       1.357304    1.271568   -2.561669
N       1.943591    1.528510   -3.660104
H       0.877643    1.846764    0.330893
H      -0.690458    1.932026   -0.505892
H      -0.619925    1.546326    1.215365
H       1.041315   -2.578996   -0.458384
H      -0.518346   -2.496166   -1.266384
H       1.943293   -0.937093   -3.937511
H       1.023258    2.005871   -1.832858
H       2.062074    2.532885   -3.771032
