22

C       0.001068    1.523072   -0.053605
C      -0.020262   -0.006112   -0.002572
C       0.653425   -0.678185   -1.221727
C       1.222657   -2.036269   -0.731514
O       2.400310   -2.439289   -1.407451
C       1.421272   -1.827084    0.759584
N       2.186303   -0.576934    1.013429
C       0.711984   -0.606827    1.201856
C       0.137870   -0.435596    2.584394
H       1.033734    1.886377   -0.038272
H      -0.476218    1.892457   -0.967040
H      -0.528863    1.965712    0.796590
H      -1.064141   -0.344819    0.062610
H      -0.028754   -0.797143   -2.067168
H       1.491742   -0.064276   -1.565196
H       0.502168   -2.845765   -0.894749
H       3.077064   -1.797565   -1.157652
H       1.578953   -2.679417    1.413548
H       2.634951   -0.645477    1.924218
H       0.154346    0.614984    2.895824
H      -0.903495   -0.774534    2.620697
H       0.703585   -1.012876    3.323380
