14

C       0.108064    1.371650   -0.379177
C      -0.102234    0.113860    0.423727
O       0.650119   -0.238955    1.299780
C      -1.322302   -0.763098    0.121716
C      -1.170854   -2.220470    0.411178
O      -1.890648   -1.392653    1.285470
C      -2.368202   -0.427917   -0.897901
O      -2.244445    0.351756   -1.807192
H       1.025219    1.854977   -0.041303
H       0.156067    1.144285   -1.447411
H      -0.744449    2.048271   -0.257937
H      -1.756332   -2.940803   -0.159865
H      -0.191517   -2.538372    0.761747
H      -3.306746   -1.000013   -0.728389
