19

O      -0.032045    1.278846   -0.145040
C      -0.061674   -0.117002   -0.047464
C      -0.479814   -0.680142    1.290954
C      -1.438420   -0.683772    0.081976
C      -1.357665   -2.194673    0.032998
C      -2.447972   -3.172021   -0.278445
C      -1.227967   -3.083776   -1.168151
C      -0.455771   -2.214593    1.281094
O       0.775672   -2.880244    1.082324
H       0.767828    1.588757    0.292313
H       0.682644   -0.642626   -0.646695
H      -0.511007   -0.043688    2.167669
H      -2.317428   -0.072289   -0.078226
H      -2.553284   -4.040107    0.365432
H      -3.387438   -2.782794   -0.658071
H      -1.340250   -2.636156   -2.150392
H      -0.495721   -3.881591   -1.111909
H      -0.987763   -2.624772    2.151658
H       1.280498   -2.831118    1.900356
