20

C       0.226673    1.510932   -0.338677
C      -0.431850    0.343960    0.391496
N       0.293950    0.035385    1.618518
C      -0.124520   -0.910583    2.343513
O      -1.233206   -1.685832    2.058091
C      -1.406451   -2.653242    3.092118
C      -0.283911   -2.407895    4.068869
C      -0.109542   -3.221597    5.306399
C       0.444069   -1.387655    3.604700
H       1.262606    1.269399   -0.595380
H      -0.312430    1.749051   -1.261486
H       0.240063    2.403252    0.294552
H      -1.480838    0.585243    0.619040
H      -0.466743   -0.539245   -0.263563
H      -2.397818   -2.523846    3.549173
H      -1.372144   -3.661878    2.656310
H       0.022512   -4.284008    5.066227
H       0.758349   -2.891635    5.881699
H      -0.994091   -3.154536    5.952095
H       1.323351   -0.941280    4.045735
