16

C      -1.303632   -0.492896    0.044882
O       0.089369   -0.725342   -0.029426
C       0.783681   -0.465438    1.178018
C       0.384259   -1.369379    2.265667
C       0.063251   -2.123234    3.144858
C       2.262508   -0.613248    0.858887
C       3.042540    0.533792    0.390259
O       3.156209    0.060030    1.736361
H      -1.522734    0.553571    0.307602
H      -1.710777   -0.703175   -0.946326
H      -1.787086   -1.147401    0.781656
H       0.610782    0.574208    1.504318
H      -0.216351   -2.782675    3.929336
H       2.562624   -1.618999    0.568013
H       3.914805    0.369968   -0.239665
H       2.556766    1.501606    0.274932
