15

O       0.114834    1.352960    0.000292
C       0.069200   -0.032883    0.021908
C      -0.453554   -0.705650    1.259510
O      -0.921840    0.149091    2.269377
C      -1.296032   -0.710662    0.013787
C      -2.655619   -0.098186   -0.263199
O      -2.997070   -1.287357   -1.059300
C      -1.777201   -1.873279   -0.797995
O      -1.376301   -2.934200   -1.157480
H      -0.269651    1.650414    0.837864
H       0.865255   -0.494333   -0.553533
H      -0.038239   -1.656389    1.587228
H      -0.218938    0.252319    2.921268
H      -3.328783    0.003740    0.589684
H      -2.657414    0.801652   -0.881141
