18

O       0.292871    0.660663    1.023197
C      -0.042798    0.411912   -0.336685
C      -1.375245   -0.307475   -0.337620
C      -1.988884   -0.980180   -1.590523
C      -0.905625   -1.959493   -2.094196
C      -0.549851   -2.588820   -0.708869
C      -1.546565   -1.772317    0.139511
O      -2.755733   -1.834841   -0.686012
H       1.132572    1.128869    1.045341
H      -0.138356    1.352165   -0.904541
H       0.736226   -0.186382   -0.830845
H      -2.133659    0.310537    0.147830
H      -2.595633   -0.442943   -2.320030
H      -1.333663   -2.685131   -2.788418
H      -0.063612   -1.465137   -2.586676
H      -0.777773   -3.655208   -0.660358
H       0.491526   -2.443605   -0.409650
H      -1.702713   -2.041847    1.182987
