18

C      -0.171876    1.548106    0.001799
C       0.021087    0.053207    0.074328
N       1.257622   -0.644407   -0.259069
C       2.489828    0.183748   -0.278589
C       2.722050    0.637317    1.145433
C       1.774981    0.159375    1.952057
C       0.800790   -0.647995    1.172229
C       0.253222   -1.914874    1.723060
O       0.292145   -2.219135    2.889867
H       0.610070    2.103212    0.521909
H      -0.189282    1.871138   -1.045525
H      -1.135659    1.816745    0.445041
H      -0.841488   -0.502290   -0.295718
H       3.317810   -0.429656   -0.655239
H       2.374235    1.021499   -0.979018
H       3.548194    1.276278    1.435059
H       1.695728    0.289252    3.022398
H      -0.224344   -2.567483    0.958445
