19

C       0.441063    0.876382   -0.858686
C      -0.252062    0.342173    0.375681
O       0.100927    0.639602    1.498351
C      -1.392913   -0.632451    0.172162
C      -2.394562   -0.781695    1.348557
N      -2.261417   -2.268827    1.328638
C      -1.209557   -2.196689    0.295118
C      -1.793549   -2.296722   -1.131634
N      -1.892668   -0.809608   -1.206049
H       1.273298    1.514985   -0.560564
H       0.795237    0.053676   -1.487772
H      -0.268820    1.435927   -1.476280
H      -2.005304   -0.305837    2.252564
H      -3.413483   -0.426736    1.153617
H      -1.920038   -2.634513    2.209531
H      -0.261209   -2.688699    0.516384
H      -1.121222   -2.699736   -1.897855
H      -2.742452   -2.841162   -1.156653
H      -2.827488   -0.448917   -1.366568
