21

C      -0.023665    1.679482   -0.046630
C       0.047059    0.145234   -0.038233
C       0.811007   -0.317453    1.223980
C      -1.389817   -0.425738   -0.022016
C       0.782573   -0.335483   -1.295699
N       1.231615    0.475488   -2.159732
N       0.899777   -1.748349   -1.379473
C       1.499822   -2.474346   -2.376204
O       2.036678   -2.024623   -3.363986
H       0.975592    2.118769   -0.063691
H      -0.553078    2.043558   -0.929209
H      -0.548051    2.027690    0.849287
H       0.308694    0.059055    2.120666
H       0.862211   -1.407864    1.318123
H       1.835724    0.066094    1.223323
H      -1.942266   -0.119579   -0.915447
H      -1.415454   -1.519939    0.028331
H      -1.928148   -0.051201    0.854366
H       1.688801   -0.022732   -2.923967
H       0.501073   -2.288508   -0.627785
H       1.438823   -3.561550   -2.173472
