17

C      -0.129294    1.589984   -0.068526
C      -0.002006    0.067708   -0.039498
C       0.806948   -0.547173   -1.217786
C       1.963000   -0.721650   -0.201677
N       1.005945   -0.469536    0.902649
C      -1.370417   -0.568950    0.199270
F      -2.247975   -0.189344   -0.750579
F      -1.320433   -1.904028    0.181783
F      -1.875679   -0.196881    1.386975
H       0.847545    2.042767   -0.260698
H      -0.820133    1.914010   -0.851643
H      -0.503799    1.961902    0.890257
H       0.396006   -1.492470   -1.571603
H       0.985892    0.114607   -2.065499
H       2.439131   -1.705859   -0.157702
H       2.746578    0.039111   -0.311000
H       1.311127    0.180955    1.618081
