16

C      -0.171758    1.359517    0.044416
C       0.098629   -0.127006    0.085609
C       1.492204   -0.609958   -0.233868
C       0.983897   -0.674140    1.211097
C       1.014128   -2.175220    1.030402
N       0.400962   -3.324675    1.214776
C       0.599851   -3.910133   -0.021136
N       1.202732   -3.174024   -0.952343
N       1.551043   -2.085288   -0.207351
H       0.701624    1.935719    0.367439
H      -0.429829    1.678078   -0.970415
H      -1.006419    1.619310    0.702682
H      -0.724654   -0.757507   -0.239738
H       2.284136   -0.016007   -0.669518
H       1.298329   -0.083096    2.059099
H       0.295776   -4.927062   -0.226327
