20

C      -0.128399    1.514181    0.039102
C       0.019437    0.012876   -0.018211
C       1.375364   -0.617415   -0.316255
C       0.729338   -0.808006    1.031092
C       1.313976   -0.328657    2.327154
O       0.045029   -2.050290    1.179976
C      -1.002433   -2.141393    0.301749
N      -1.709941   -3.173527    0.138429
C      -1.181992   -0.822384   -0.429381
H       0.769149    1.993927    0.440358
H      -0.299492    1.927514   -0.961370
H      -0.976401    1.806946    0.668748
H       1.428731   -1.473993   -0.981442
H       2.225857    0.054454   -0.374035
H       1.813766    0.633704    2.192011
H       0.534838   -0.212276    3.087167
H       2.053155   -1.042948    2.703659
H      -1.387158   -3.927446    0.747546
H      -2.116642   -0.353180   -0.101451
H      -1.267518   -0.991901   -1.506056
