19

C       0.079223    1.600777   -0.100825
C       0.043322    0.145990   -0.056711
C       0.020741   -1.058972   -0.028116
C      -0.014112   -2.504304    0.014717
C       0.092723   -3.302516    1.352748
C      -0.991035   -2.681527    2.254645
C      -2.148333   -2.684720    1.204503
C      -1.353768   -3.306526    0.040201
O      -0.628963   -4.388155    0.698068
H       1.093189    1.978303    0.071889
H      -0.251625    1.976689   -1.075363
H      -0.572449    2.040148    0.662400
H       0.654882   -2.956293   -0.721160
H       1.049675   -3.594969    1.783968
H      -1.196752   -3.318956    3.116574
H      -0.725884   -1.681021    2.603285
H      -2.984364   -3.323867    1.494496
H      -2.524007   -1.685973    0.971609
H      -1.874758   -3.603079   -0.869669
