14

O       0.191949    1.288336    0.023741
C       0.093247   -0.051614    0.052999
N       0.159350   -0.811948   -1.034038
N      -0.001625   -2.048649   -0.544384
C       0.083996   -3.229045   -1.389951
C       1.454273   -3.606774   -1.726374
C       2.574146   -3.930598   -2.012084
N      -0.150744   -2.132155    0.767815
C      -0.100695   -0.865481    1.182394
H       0.331028    1.551519   -0.894453
H      -0.413781   -4.031641   -0.839794
H      -0.489602   -3.027594   -2.299887
H       3.567666   -4.213190   -2.259381
H      -0.209584   -0.598948    2.220053
