19

C      -0.295633   -1.014470    0.665399
C      -0.185324    0.142665    0.355394
C      -0.064371    1.551325   -0.053382
C       1.387448    1.905736   -0.347449
C       1.881418    3.264191   -0.033599
N       2.339778    2.101765    0.751452
N      -0.890550    1.952475   -1.204302
C      -1.097074    1.000860   -2.293647
C      -2.211815    1.355693   -1.372783
H      -0.379731   -2.032845    0.956047
H      -0.397152    2.176203    0.787954
H       1.803548    1.373919   -1.199922
H       2.643051    3.725620   -0.655063
H       1.181209    3.962544    0.417821
H       1.853429    2.067408    1.645013
H      -1.043756    1.424511   -3.292157
H      -0.682436    0.000826   -2.189820
H      -2.522627    0.587496   -0.668598
H      -2.991435    2.045340   -1.683078
