17

C      -0.534205    0.828521   -0.611970
O       0.126268    1.653464    0.350523
C       0.436926    0.255726    0.325503
C       0.002932   -0.532383    1.513412
C       0.786893   -0.479866    2.813338
O       0.340673   -1.589322    3.584096
C      -0.192441   -2.589947    2.725657
C      -0.618770   -1.862465    1.470363
O      -1.401746   -0.694271    1.742012
H      -1.592834    0.662465   -0.430476
H      -0.242157    0.992778   -1.648063
H       1.444514    0.031588   -0.028377
H       1.865688   -0.542344    2.594245
H       0.598916    0.430864    3.389445
H       0.558268   -3.355425    2.467386
H      -1.020121   -3.076438    3.251766
H      -0.843371   -2.395863    0.550769
