23

C       0.184919    1.523895    0.018800
C       0.025184    0.002318    0.004878
C      -1.440222   -0.519556    0.017066
C      -1.418834   -2.065574    0.029689
C      -2.199956   -0.008959    1.262824
O      -1.475627   -0.395841    2.421884
C      -2.165018   -0.047076   -1.168355
C      -2.771152    0.334929   -2.137318
C      -3.501394    0.791030   -3.312466
H       1.238969    1.797148   -0.091931
H      -0.371854    1.989070   -0.800540
H      -0.165893    1.957140    0.960538
H       0.511125   -0.407137   -0.888062
H       0.533727   -0.428074    0.872926
H      -0.950349   -2.422717    0.949991
H      -2.434555   -2.468517   -0.023713
H      -0.857347   -2.448894   -0.826786
H      -2.306097    1.082929    1.204453
H      -3.211524   -0.441416    1.259438
H      -1.965230   -0.101297    3.194671
H      -4.209533    0.031532   -3.662358
H      -4.072351    1.701690   -3.099345
H      -2.821482    1.015091   -4.141990
