18

C      -0.202212    1.404017   -0.013773
N       0.032252   -0.030613    0.054540
C       1.408074   -0.495692   -0.140511
C       0.758628   -0.543978    1.192743
C       1.266732    0.174503    2.478771
C       0.868538   -1.093931    3.248666
N      -0.590804   -1.250477    3.044972
C       0.358342   -1.751043    2.011838
H       0.631677    2.010620    0.376807
H      -0.372224    1.690645   -1.056492
H      -1.101367    1.647495    0.560254
H       1.524322   -1.392320   -0.745296
H       2.190641    0.251073   -0.279565
H       2.342440    0.364458    2.463566
H       0.732661    1.078191    2.782982
H       1.367733   -1.527395    4.105457
H      -0.883370   -2.063979    3.587342
H       0.358801   -2.791577    1.711484
