19

C       0.001947    1.562522    0.080759
C       0.063048    0.061503   -0.068008
C       0.759524   -0.641347   -1.174750
C       1.819696    0.102144   -1.990679
N       2.849616    0.488085   -1.012296
C       2.492774    0.030501    0.123046
C       3.320842    0.241439    1.354302
O       4.449093    1.035983    1.103069
N       1.299765   -0.742092    0.212435
H       0.895762    2.063545   -0.296108
H      -0.862045    1.945757   -0.472637
H      -0.129095    1.841697    1.131362
H      -0.810066   -0.447895    0.334403
H       0.327354   -1.549805   -1.582483
H       2.259037   -0.548078   -2.755353
H       1.441921    0.992827   -2.506880
H       2.686257    0.701212    2.129272
H       3.606226   -0.748626    1.745234
H       4.444011    1.203182    0.149025
