15

O      -0.223205    1.452080    0.092584
N       0.047621    0.077262    0.036152
C      -1.023978   -0.601348    0.005612
C      -2.496219   -0.123227   -0.037196
N      -3.270531   -1.244209   -0.641192
C      -2.486495   -2.228220   -0.551276
O      -2.305898   -3.384475   -1.260606
C      -0.841168   -3.175547   -1.112901
C      -1.104590   -2.107008   -0.004534
H       0.659489    1.837417    0.067576
H      -2.860886    0.147059    0.962418
H      -2.598647    0.765429   -0.665660
H      -0.347787   -4.093480   -0.793605
H      -0.426880   -2.793372   -2.047707
H      -0.953691   -2.538071    0.989105
