20

C      -0.126196    1.570864    0.051463
C      -0.054338    0.042912   -0.005842
C       0.715611   -0.495030   -1.232302
C       2.202956   -0.211535   -1.226464
C       2.945542   -1.316559   -1.285311
C       2.111135   -2.570304   -1.360323
C       0.700480   -2.017659   -1.325337
N      -0.392239   -2.665892   -1.357858
O      -0.158766   -4.052558   -1.434411
H       0.867254    2.023159    0.137786
H      -0.599902    1.979028   -0.848576
H      -0.712923    1.901599    0.914026
H       0.416374   -0.345347    0.905630
H      -1.064777   -0.377725   -0.038834
H       0.245638   -0.064149   -2.129314
H       2.594880    0.797723   -1.178397
H       4.029409   -1.340925   -1.289686
H       2.283821   -3.154841   -2.274160
H       2.287155   -3.267982   -0.530678
H      -1.053601   -4.407829   -1.453283
