16

C      -0.082596   -1.214411   -0.093615
C      -0.042091   -0.013342   -0.034742
C      -0.002487    1.430071    0.015380
C      -0.023179    2.083581    1.454360
C       1.497114    1.741962    1.535660
C       1.412945    2.111574    0.037974
O       1.085332    3.503490    0.043334
C       0.052304    3.560599    1.058825
H      -0.120129   -2.274179   -0.147116
H      -0.691923    1.868763   -0.712719
H      -0.745071    1.785117    2.212215
H       2.133151    2.368504    2.164785
H       1.680705    0.682759    1.710584
H       2.185361    1.907539   -0.700542
H      -0.874969    3.951831    0.625118
H       0.367664    4.213654    1.880776
