18

C      -0.043486    1.617967    0.252377
C      -0.014079    0.088761    0.036783
C       0.793089   -0.564365    1.073808
N       1.414010   -1.079650    1.901309
C      -1.406544   -0.504361   -0.013795
C      -2.237353   -0.905047    1.191100
C      -1.945869   -1.909847    0.118522
O      -2.844472   -1.755729   -0.982546
C      -2.329797   -0.422324   -1.230970
H       0.967192    2.033038    0.254654
H      -0.611003    2.091486   -0.553614
H      -0.523472    1.861628    1.203336
H       0.482307   -0.116731   -0.921710
H      -1.668635   -1.034273    2.107056
H      -3.250618   -0.533038    1.316154
H      -1.469913   -2.872329    0.264780
H      -3.117982    0.339581   -1.227768
H      -1.787755   -0.391586   -2.184497
