21

C      -0.105435    1.601631    0.057195
C       0.083094    0.094294    0.134850
C       1.314869   -0.685715   -0.228663
C       2.608487   -0.054861    0.285855
O       2.971017    1.219255   -0.199395
C       2.029732   -0.088989    1.741292
O       2.003828    1.143531    2.441779
C       0.740178   -0.725203    1.221541
C       0.020722   -1.833354    1.942637
H       0.823354    2.148824    0.212278
H      -0.463611    1.878610   -0.940136
H      -0.861186    1.940569    0.776839
H      -0.808377   -0.430646   -0.209644
H       1.284435   -1.475671   -0.970619
H       3.451158   -0.751115    0.180714
H       3.160500    1.747210    0.588994
H       2.592129   -0.782150    2.373295
H       1.210389    1.621054    2.182505
H      -0.526844   -1.453062    2.813588
H      -0.705380   -2.326674    1.288397
H       0.720433   -2.596596    2.302148
