18

C       0.073437    1.507247   -0.285670
C      -0.015086    0.027179    0.131438
C      -1.407640   -0.513720    0.179265
C      -2.198020   -0.892188    1.240318
C      -3.460727   -1.307064    0.715896
O      -4.562571   -1.834547    1.361921
C      -3.397184   -1.173907   -0.647482
O      -4.302398   -1.445213   -1.620774
N      -2.157639   -0.699570   -0.974274
H       1.113538    1.849024   -0.301794
H      -0.344468    1.666466   -1.285494
H      -0.486813    2.139480    0.409597
H       0.604546   -0.573762   -0.549865
H       0.425332   -0.096735    1.126056
H      -1.905895   -0.878669    2.279716
H      -4.878995   -1.192684    2.006078
H      -5.081516   -1.796253   -1.172598
H      -1.848028   -0.533081   -1.915866
