20

C      -0.062374    1.576000    0.136114
C       0.022335    0.058280   -0.041802
C      -1.374327   -0.506420    0.251744
C       0.865615   -0.577585   -1.193761
C       2.101029   -0.064931   -0.426196
N       1.225184   -0.623555    0.721036
C       1.038135   -1.800201   -0.249405
C       0.051324   -2.903410    0.044071
O      -0.237674   -3.298728    1.142959
H       0.882298    2.112495    0.066463
H      -0.738887    1.993556   -0.617286
H      -0.492786    1.795315    1.118885
H      -1.630290   -1.389781   -0.336892
H      -1.466894   -0.770010    1.309030
H      -2.133183    0.246594    0.022656
H       0.670155   -0.567569   -2.273272
H       3.036846   -0.614714   -0.548596
H       2.294995    1.002300   -0.375413
H       1.983319   -2.341706   -0.412748
H      -0.319853   -3.420083   -0.874804
