25

C      -0.047422    1.549459   -0.447705
C      -0.011908    0.113121    0.081007
C      -1.381120   -0.572823    0.049520
C      -1.350115   -2.016214    0.572723
C      -2.716279   -2.658426    0.537875
O      -3.247588   -3.019247   -0.746641
C      -3.017742   -4.067095    0.213902
C      -1.939697   -5.063569   -0.155066
C      -4.283288   -4.686552    0.771659
H       0.943935    2.012340   -0.416136
H      -0.396678    1.579815   -1.485721
H      -0.725197    2.173423    0.145668
H       0.701644   -0.477090   -0.509508
H       0.372585    0.109673    1.109931
H      -2.096618    0.014593    0.641958
H      -1.768606   -0.580241   -0.976990
H      -0.638081   -2.600793   -0.017871
H      -0.987065   -2.026383    1.610017
H      -3.448322   -2.149248    1.172495
H      -1.083424   -4.581453   -0.628022
H      -1.592159   -5.605759    0.731256
H      -2.339841   -5.801472   -0.859269
H      -4.718161   -5.384825    0.047880
H      -4.072793   -5.245588    1.690084
H      -5.028021   -3.918369    0.993640
