18

N       0.050135   -1.151784    0.201232
C       0.011399   -0.004413    0.070266
C      -0.023788    1.446930   -0.109595
C       1.370415    2.053384   -0.071004
C       1.612655    3.555185   -0.112942
C       0.458501    4.511880    0.192721
C       0.342657    4.418345    1.729030
O       0.867185    3.133326    2.089649
C       1.856945    2.784467    1.157119
H      -0.525767    1.661290   -1.060595
H      -0.634660    1.874701    0.691522
H       2.122800    1.467741   -0.591023
H       2.432226    3.909284   -0.726339
H       0.692571    5.527787   -0.134575
H      -0.473818    4.219191   -0.301509
H       0.933748    5.209997    2.211895
H      -0.682922    4.474083    2.103688
H       2.837475    2.592734    1.580923
