21

C      -0.051525    1.536552   -0.022943
C       0.036653    0.025898    0.027128
C       1.381945   -0.663567   -0.205856
C       0.722017   -0.678685    1.143671
C       1.181370   -0.216862    2.547136
C      -0.204994   -0.715731    3.053850
C       0.278858   -1.827912    2.076416
C       1.674826   -1.687036    2.773863
O       2.838122   -2.161498    2.169961
H       0.833050    1.997418    0.428567
H      -0.124033    1.896075   -1.055360
H      -0.929208    1.903757    0.520556
H      -0.818414   -0.489533   -0.406164
H       1.390768   -1.570133   -0.804833
H       2.243631   -0.019024   -0.362380
H       1.694594    0.708171    2.812819
H      -0.269872   -0.988079    4.111124
H      -1.070658   -0.137493    2.729069
H      -0.242937   -2.744867    1.798572
H       1.708752   -2.009944    3.817840
H       2.824761   -1.882478    1.247529
