16

N       0.051620   -1.195485   -0.066066
C       0.026316   -0.038330   -0.031183
C      -0.025742    1.380480    0.026029
C       0.262135    2.303715   -1.157954
C       1.080152    2.439364    0.077677
O       0.407848    3.191930    1.079596
C      -0.638418    2.204491    1.141594
C      -2.051835    2.541031    1.461204
C      -1.196221    1.734889    2.436207
H       0.749149    1.812855   -1.993977
H      -0.462208    3.071061   -1.412307
H       2.155616    2.334205    0.147634
H      -2.262045    3.572587    1.721330
H      -2.843597    2.034006    0.920199
H      -1.399121    0.675125    2.550397
H      -0.847672    2.236900    3.331788
