14

N       0.050318   -1.140293    0.021926
C       0.016310    0.015082    0.033217
C       0.007723    1.459318    0.064305
C      -1.085539    2.068820   -0.661552
N      -1.972430    2.558750   -1.215705
C       0.528363    2.209086    1.261330
C       1.618202    1.428540    1.985679
C       2.361436    1.418395    0.621294
N       1.279014    2.252905   -0.033266
H      -0.037316    3.057811    1.631495
H       2.123470    2.028713    2.742964
H       1.327615    0.469713    2.418977
H       3.283747    1.999099    0.614431
H       2.531240    0.454123    0.139153
