16

C       0.019810    1.445402    0.028897
C      -0.025015   -0.070758    0.067125
O      -0.090802   -0.703833    1.089842
C       0.021620   -0.738424   -1.303470
O       0.015666   -2.146985   -1.137858
C       0.033915   -2.875179   -2.264699
N       0.057295   -2.386203   -3.432958
C       0.022095   -4.353790   -1.937098
O       0.035133   -5.191132   -2.800317
H       0.970457    1.786361   -0.397078
H      -0.777052    1.844034   -0.608604
H      -0.085608    1.837570    1.040652
H      -0.836959   -0.421132   -1.909822
H       0.916257   -0.421078   -1.855009
H       0.066204   -3.158409   -4.103326
H       0.000731   -4.595818   -0.857010
