19

C       0.011589    1.628574    0.031584
C      -0.087755    0.128671    0.283172
O       0.063805   -0.069869    1.678872
C      -1.424293   -0.450346   -0.218150
C      -1.453409   -1.973319   -0.181499
O      -1.201153   -2.538978    1.143101
C      -2.485956   -3.192690    1.226956
C      -2.829484   -2.658339   -0.170852
O      -3.757908   -2.725561   -0.914014
H       0.943189    2.012326    0.455761
H      -0.002925    1.851070   -1.039595
H      -0.820853    2.152432    0.512239
H       0.729339   -0.374384   -0.266109
H      -0.189727   -0.981827    1.873508
H      -2.232684   -0.040753    0.399212
H      -1.607874   -0.142406   -1.254395
H      -0.753590   -2.397658   -0.914609
H      -2.402034   -4.283081    1.306442
H      -3.110672   -2.811582    2.043648
