19

C      -0.169793    1.544423    0.054692
C       0.018795    0.047217   -0.035112
C       0.683646   -0.632804   -1.199322
C       1.229405    0.113300   -2.395456
C       1.397299   -0.599710    0.159445
C       2.560310    0.202209    0.355178
C       3.557555    0.869055    0.535484
C       4.672116    1.622015    0.732152
C       5.662989    2.291341    0.906920
H       0.696929    2.092304   -0.320215
H      -1.047218    1.859187   -0.520564
H      -0.323693    1.850394    1.094599
H      -0.784566   -0.521780    0.426020
H       0.282817   -1.613494   -1.442983
H       1.719838    1.046223   -2.110736
H       1.970196   -0.496306   -2.923014
H       0.427048    0.351601   -3.102073
H       1.406208   -1.535779    0.711335
H       6.533085    2.879661    1.060084
