16

N      -0.057523    0.913321   -0.981817
C       0.039026    0.052068   -0.062158
O       1.172837   -0.670686    0.137880
C       1.316116   -1.437128    1.335489
C       0.626216   -2.789593    1.232346
C      -0.870149   -2.720068    1.183200
C      -1.629519   -1.629755    1.027130
C      -1.208540   -0.226000    0.782919
O      -1.908263    0.696379    1.135746
H       0.824092    0.976208   -1.497544
H       2.393303   -1.567651    1.461377
H       0.939594   -0.872313    2.197872
H       1.006687   -3.324360    0.350616
H       0.920632   -3.400219    2.097042
H      -1.380335   -3.667474    1.345993
H      -2.708871   -1.716197    1.117826
