23

C       0.107936    1.616360   -0.075125
C       0.056816    0.092121    0.023217
C       0.587841   -0.637448   -1.241751
C       1.127592   -1.974759   -0.742536
C       0.933251   -3.238292   -1.535317
O       2.415615   -1.813266   -0.119788
C       1.255736   -1.905379    0.723387
C       0.786128   -0.554386    1.255431
C       1.946566    0.252495    1.853318
H       1.134383    1.978750   -0.191566
H      -0.464923    1.964189   -0.941631
H      -0.318303    2.093938    0.813689
H      -0.997812   -0.196073    0.121704
H      -0.203955   -0.768044   -1.986556
H       1.399055   -0.079047   -1.723213
H       1.412382   -3.157315   -2.517571
H       1.372682   -4.092122   -1.013158
H      -0.131614   -3.436138   -1.698813
H       1.225745   -2.788967    1.359427
H       0.048415   -0.726623    2.048605
H       2.733229    0.414600    1.112749
H       1.609015    1.223667    2.225672
H       2.391992   -0.288712    2.694877
