19

C       0.219821    1.542030   -0.286889
C       0.022196    0.058217   -0.040383
C       0.868781   -0.988682   -0.778284
C       2.124522   -0.660294   -1.143809
C       3.107768   -1.109951   -0.063934
C       2.101726   -1.381115    1.070146
C       0.870844   -1.934148    0.439081
C       0.661978   -0.682808    1.210992
O       0.083507   -0.624648    2.469495
H       1.279836    1.813597   -0.262739
H      -0.182858    1.839759   -1.261011
H      -0.305994    2.127227    0.475759
H      -1.047719   -0.183130    0.010801
H       2.353845    0.200310   -1.765016
H       3.716658   -2.003518   -0.268127
H       3.809207   -0.289090    0.133517
H       2.437160   -1.772735    2.028600
H       0.408842   -2.908787    0.528027
H       0.420583    0.157633    2.919456
