18

O      -0.375605    0.199826   -0.052658
C      -0.027234    1.346860    0.061940
C       1.428445    1.811598    0.040963
C       1.694309    2.515551   -1.270408
C       2.253212    3.717286   -1.389926
C       2.730229    4.565478   -0.244552
C       2.346067    4.022161    1.114793
N       0.904711    3.906690    1.382481
C       1.718963    2.680552    1.254408
H      -0.756993    2.175068    0.177511
H       2.039996    0.901702    0.091109
H       1.403239    1.965840   -2.161864
H       2.411841    4.127254   -2.384460
H       3.824959    4.653153   -0.298120
H       2.345352    5.588770   -0.352534
H       2.975731    4.352050    1.938315
H       0.708036    4.095878    2.361127
H       1.927422    2.125461    2.165984
