20

C      -0.091237    1.587092   -0.010719
C      -0.039957    0.066401    0.085541
N      -1.373655   -0.504081   -0.075501
C      -1.486620   -1.887080   -0.024558
C      -0.542661   -2.898164   -0.012384
C      -1.297520   -4.101295   -0.026935
C      -0.784118   -5.506781   -0.014925
N      -2.602472   -3.863928   -0.042189
N      -2.697362   -2.503603   -0.037828
H       0.911873    2.010661    0.088288
H      -0.509896    1.902871   -0.970533
H      -0.709766    2.013646    0.787808
H       0.590214   -0.337907   -0.714501
H       0.424073   -0.238458    1.038188
H      -2.062514   -0.029048    0.495047
H       0.528551   -2.789908    0.020395
H      -0.187390   -5.709533    0.881664
H      -1.621779   -6.207197   -0.036352
H      -0.143362   -5.706251   -0.881210
H      -3.601709   -2.075194   -0.130324
