16

C      -0.003626    1.462943    0.054182
C      -0.024697   -0.036035   -0.006319
C      -1.247918   -0.934773   -0.243802
C      -0.358093   -2.110781    0.246271
C       0.592977   -1.037247    0.915777
C       1.208326   -0.828238   -0.492183
C       0.733155   -2.202988   -0.841597
O       1.160515   -3.095358   -1.518663
H       0.970296    1.835320    0.387814
H      -0.210818    1.900580   -0.928521
H      -0.761368    1.832446    0.753814
H      -2.044399   -0.699903    0.468871
H      -1.662721   -1.006191   -1.255974
H      -0.770130   -3.004513    0.706009
H       1.100689   -0.989656    1.867091
H       2.136355   -0.333204   -0.744862
