16

O      -0.107264    1.346248    0.472014
N      -0.010054   -0.050771    0.519709
C      -1.042303   -0.597892    0.030073
C      -2.378554   -0.147690   -0.533937
C      -2.866316   -1.637319   -0.424191
O      -3.512915   -2.237113   -1.512415
C      -1.411100   -2.042319   -0.098301
C      -0.638310   -3.167102   -0.649509
O      -1.005529   -3.108236    0.730925
H       0.710771    1.623665    0.899470
H      -2.921895    0.595585    0.052959
H      -2.313878    0.205886   -1.568986
H      -3.517824   -1.787298    0.440365
H      -2.956473   -2.130059   -2.291792
H      -1.156757   -3.923957   -1.236799
H       0.421134   -3.031286   -0.858890
