17

C      -0.666742    1.457853    0.091929
C       0.053675    0.092844    0.019701
C       0.628300   -0.108342   -1.361708
C       1.897167   -0.024926   -1.747094
C       3.063106    0.303270   -0.859772
O       3.127968   -0.375769    0.398647
C       2.115369   -0.277428    1.297162
N       0.879777   -0.059764    1.201417
H       0.051276    2.273949   -0.033740
H      -1.423294    1.541832   -0.693952
H      -1.151011    1.567637    1.065234
H      -0.730554   -0.669980    0.141077
H      -0.126052   -0.312690   -2.120677
H       2.139144   -0.161029   -2.798223
H       4.000128    0.034210   -1.353411
H       3.099243    1.385646   -0.665573
H       2.533209   -0.461302    2.288784
