22

C       0.202958    1.525358    0.125066
C       0.025365    0.020044    0.003153
C       0.645078   -0.566008   -1.296858
N       1.134340   -1.947251   -1.129103
C       0.242510   -2.631993   -0.120247
C       1.045519   -1.925369    1.003528
C       1.220641   -2.533533    2.374820
C       2.184278   -1.911504   -0.043607
O       0.588210   -0.582532    1.177176
H       1.266108    1.785731    0.135710
H      -0.272591    2.036633   -0.718570
H      -0.250010    1.892366    1.050355
H      -1.052775   -0.201593   -0.002067
H      -0.109467   -0.545812   -2.092092
H       1.489796    0.045334   -1.634913
H      -0.829190   -2.441243   -0.214868
H       0.421445   -3.710734   -0.144132
H       1.622727   -3.548132    2.298584
H       1.909638   -1.929182    2.973076
H       0.263025   -2.573898    2.903053
H       2.776592   -2.831793   -0.070087
H       2.841627   -1.037840   -0.052378
