13

O       0.049345   -0.027277   -0.258385
C       0.028548    1.162332   -0.135710
O      -1.095940    1.950431   -0.094483
N      -0.763209    3.347257    0.103209
C       0.521232    3.303746    0.149700
O       1.430669    4.254662    0.359687
C       2.735809    3.634149    0.167176
C       2.503631    2.092391    0.194187
N       1.071765    2.070638   -0.014873
H       3.126085    3.965984   -0.798600
H       3.388563    3.985647    0.966050
H       3.045498    1.580389   -0.603322
H       2.774864    1.642753    1.154488
