17

C      -0.025679    1.542057   -0.012124
C      -0.014741    0.011916    0.041527
C       0.750291   -0.530851    1.251494
N      -1.387379   -0.506912    0.032869
N      -2.250454   -0.243851    1.005521
C      -3.359733   -0.883425    0.624930
C      -3.108372   -1.521407   -0.594807
N      -1.846363   -1.268093   -0.953710
H       1.000167    1.919508   -0.052154
H      -0.559723    1.897720   -0.897442
H      -0.513973    1.952175    0.875679
H       0.416764   -0.387579   -0.879047
H       0.290080   -0.186128    2.181077
H       0.755606   -1.624216    1.251509
H       1.785926   -0.179964    1.223537
H      -4.252909   -0.853385    1.228299
H      -3.749514   -2.129666   -1.212281
