19

C       1.045049    0.224187    1.365442
C       0.291571   -0.625207    0.454097
C      -0.329492   -1.326459   -0.302372
C      -1.069292   -2.175064   -1.226809
C      -1.263544   -3.630917   -0.786651
O      -1.281916   -4.521330   -1.607860
C      -1.480963   -3.958479    0.688468
C      -2.720325   -3.237749    1.245097
O      -1.600787   -5.347005    0.851162
H       2.053535    0.417744    0.984319
H       0.551219    1.191551    1.507368
H       1.147036   -0.244349    2.350324
H      -2.078069   -1.766279   -1.388445
H      -0.593589   -2.207839   -2.212438
H      -0.595055   -3.590304    1.229694
H      -2.593893   -2.151743    1.230716
H      -3.612451   -3.509169    0.672141
H      -2.872438   -3.555654    2.279277
H      -1.552593   -5.716881   -0.044808
