22

C      -0.030715    1.548490   -0.072148
C       0.078211    0.011342    0.013740
C       0.849497   -0.472159   -1.138722
N       1.459620   -0.810608   -2.060553
C       0.681119   -0.510684    1.351945
C      -0.108422    0.017344    2.559390
C       0.732104   -2.029140    1.380532
C       1.896673   -2.795885    0.807756
C       1.695972   -2.738152    2.300505
H       0.944562    2.015941    0.093888
H      -0.387890    1.853600   -1.058680
H      -0.730003    1.927388    0.675461
H      -0.931059   -0.412563   -0.082265
H       1.710867   -0.132961    1.416191
H       0.290600   -0.416160    3.480409
H      -0.055586    1.104897    2.652411
H      -1.165816   -0.265951    2.492358
H      -0.244401   -2.498664    1.273799
H       1.692651   -3.726150    0.290181
H       2.715151   -2.227500    0.381261
H       2.383454   -2.128041    2.878262
H       1.356715   -3.629592    2.816115
