15

N       0.007938   -1.091352   -0.146893
C      -0.044167    0.054816   -0.009912
C      -0.103771    1.487505    0.171476
N      -1.082732    2.144290   -0.296588
C      -1.124179    3.547528   -0.040256
C      -1.108340    4.026277    1.405522
C       0.098867    4.222123    0.536065
C       1.307081    3.329642    0.691441
O       0.955737    1.942222    0.885047
H      -1.755187    4.087142   -0.736101
H      -1.712383    4.892285    1.650365
H      -1.076522    3.261289    2.173688
H       0.330950    5.228039    0.199694
H       1.939267    3.397800   -0.202918
H       1.912145    3.587786    1.564134
