19

O      -0.108161    1.476094   -0.030088
C      -0.012158    0.067173   -0.169993
C      -1.381171   -0.527167    0.155684
C      -1.388316   -2.027503    0.103961
C      -1.538505   -2.855581   -1.147064
C      -2.556384   -2.996802   -0.043189
C      -1.986136   -3.828694    1.147540
O      -0.654170   -4.266186    0.835604
C      -0.856730   -2.919651    1.285503
H       0.747964    1.859169   -0.241673
H       0.277969   -0.218769   -1.193100
H       0.747095   -0.351465    0.510940
H      -1.681203   -0.175899    1.151638
H      -2.115883   -0.123656   -0.550625
H      -1.889625   -2.301849   -2.012709
H      -0.855077   -3.667176   -1.362419
H      -3.606035   -2.763727   -0.166303
H      -2.544888   -4.404221    1.875198
H      -0.294495   -2.585666    2.150084
