15

C       0.065321    1.539084   -0.022657
O       1.215808    0.674093   -0.043004
C      -0.058813    0.082560   -0.014978
C      -0.552227   -0.884417    1.120244
N      -1.030301   -1.706725   -0.002932
N      -1.740003   -2.772383   -0.371585
C      -1.747099   -2.637459   -1.712558
C      -1.067630   -1.480388   -2.179383
C      -0.619864   -0.905010   -1.003555
H      -0.079947    2.099753    0.899297
H      -0.120216    2.089013   -0.943246
H       0.243547   -1.346281    1.709497
H      -1.346447   -0.504134    1.767688
H      -2.244586   -3.387705   -2.310375
H      -0.940674   -1.157749   -3.198577
