15

O      -0.630818    0.215683   -0.268378
C      -0.327627    1.364676   -0.152186
O       0.928818    1.766206    0.114607
C       1.194684    3.159769    0.235741
C       1.941244    3.602686    1.511920
C       2.783480    4.556321    0.617174
C       2.359493    3.707951   -0.615652
H      -1.036168    2.211277   -0.249845
H       0.268865    3.727118    0.081768
H       1.352753    4.028447    2.327257
H       2.542996    2.775380    1.896913
H       2.365333    5.565603    0.584937
H       3.850667    4.627850    0.830503
H       3.077423    2.909897   -0.821692
H       2.114610    4.220218   -1.548382
