16

O       0.140316    0.178921    0.717806
C       0.024411    1.248321    0.155742
N      -1.200916    1.885198    0.103908
C      -1.595956    3.104779   -0.466476
C      -0.846625    4.203128   -0.580901
C       0.559809    4.294568   -0.048930
C       1.486223    3.282921   -0.700214
O       2.234607    2.436562    0.178006
C       1.191047    1.850040   -0.604350
H      -1.928833    1.316334    0.516658
H      -2.626071    3.097551   -0.808870
H      -1.286373    5.064298   -1.070491
H       0.957154    5.305628   -0.168207
H       0.560463    4.073851    1.026998
H       2.041089    3.622966   -1.574726
H       1.544899    1.172242   -1.381908
