13

N      -0.320290   -1.195139   -0.223684
C      -0.156260   -0.055670   -0.129238
C       0.033158    1.381149    0.002273
C      -0.254320    1.993275    1.454349
N       1.164809    2.385039    1.432223
N       2.196350    3.077152    1.958359
C       3.087891    2.916641    0.970785
N       2.682747    2.205282   -0.137084
C       1.455602    1.904915    0.230705
H      -0.510294    1.903126   -0.789526
H      -0.951210    2.833151    1.458128
H      -0.508885    1.264830    2.225201
H       4.081773    3.330703    1.053005
