12

N       0.025938    1.382364    0.150224
C      -0.029659    0.003255    0.046412
C      -1.107233   -0.845483    0.011839
O      -0.633348   -2.122583   -0.021139
C       0.706426   -1.991767   -0.003101
C       1.563010   -3.181388   -0.030481
O       1.159232   -4.318898   -0.073496
N       1.118933   -0.750580    0.035433
H       0.916374    1.753606   -0.150685
H      -0.747680    1.873750   -0.273079
H      -2.175678   -0.720520    0.009156
H       2.639157   -2.918783   -0.007633
