18

C       0.172043    1.590082    0.148828
C       0.005349    0.078925   -0.039822
C       0.534719   -0.703518    1.175815
O      -1.369515   -0.253083   -0.270586
C       0.726385   -0.363691   -1.285633
N       1.481088    0.330892   -2.076950
C       1.904520   -0.574319   -3.042364
C       1.370531   -1.786718   -2.771359
O       0.613731   -1.668870   -1.641916
H       1.223418    1.864729    0.259960
H      -0.233735    2.124940   -0.711468
H      -0.366576    1.904089    1.049785
H      -0.009241   -0.400700    2.077859
H       0.393287   -1.775905    1.025250
H       1.597915   -0.506143    1.342569
H      -1.855716   -0.025040    0.529317
H       2.553737   -0.281710   -3.851939
H       1.407170   -2.760401   -3.228384
