18

C       0.058969    1.548103    0.043491
C       0.084855    0.023043   -0.006780
C       0.776238   -0.520315   -1.234723
O       1.263764    0.187736   -2.092353
C       0.855198   -2.036136   -1.385594
N       0.334557   -2.771719   -0.470927
N       1.497847   -2.402643   -2.524049
C       1.711534   -3.772742   -2.914332
H       1.071618    1.960362    0.039841
H      -0.462366    1.962797   -0.823519
H      -0.449782    1.891658    0.948262
H       0.581247   -0.411172    0.869297
H      -0.922426   -0.409198    0.022332
H       0.445666   -3.766231   -0.674502
H       1.824703   -1.639833   -3.097290
H       2.309887   -4.318297   -2.171740
H       0.762549   -4.311156   -3.043286
H       2.246867   -3.795334   -3.864910
