16

C       0.093463    1.468862   -0.046211
N      -0.132773    0.045425    0.126678
C       0.539118   -0.719384    1.051829
C       0.610969   -2.089114    1.003426
C       1.288680   -2.823342    2.040049
O       1.413759   -4.043675    2.097831
C       1.858673   -1.940186    3.085236
N       1.789041   -0.650274    3.112806
N       1.134294   -0.055773    2.088461
H       1.149325    1.725624   -0.215664
H      -0.482387    1.807186   -0.908884
H      -0.270937    2.035846    0.819099
H      -0.383518   -0.462375   -0.705913
H       0.151741   -2.629367    0.183825
H       2.387866   -2.408516    3.909971
H       1.087658    0.945169    2.166198
