17

O       0.325094    1.430128   -0.184379
C       0.095568    0.055230   -0.070243
C       0.083871   -0.638665    1.338799
C      -1.388149   -0.191155    1.610402
C      -2.062200   -1.593458    1.691552
C      -3.232190   -1.505294    0.681984
C      -2.771464   -0.805589   -0.366741
C      -1.347483   -0.503053    0.068134
C      -0.804650   -1.787593    0.791640
H      -0.207032    1.883469    0.478915
H       0.720944   -0.423899   -0.829931
H       0.903593   -0.710665    2.053228
H      -1.739468    0.740338    2.063451
H      -2.220727   -2.132617    2.626980
H      -4.217024   -1.931162    0.819885
H      -3.273402   -0.522720   -1.280101
H      -0.473489   -2.691603    0.275275
