14

N      -0.107464    1.260193    0.233401
C      -0.003115   -0.102338    0.044189
O       0.963165   -0.755323    0.388353
N      -1.118108   -0.665754   -0.567510
C      -1.224708   -2.099865   -0.584895
C      -2.554042   -2.560332   -0.032783
O      -3.428385   -1.820065    0.344475
C      -2.741145   -4.022967   -0.014382
N      -2.872746   -5.171517   -0.004181
H       0.765063    1.700834    0.479501
H      -0.691322    1.791320   -0.393819
H      -2.000301   -0.186606   -0.445427
H      -1.127232   -2.525555   -1.596706
H      -0.403344   -2.528391    0.004632
