15

C       0.073802    1.541235    0.039211
C      -0.023118    0.055837    0.031088
C      -1.107670   -0.776535   -0.058724
N      -0.629126   -2.087988   -0.020228
C       0.742582   -2.124257    0.093895
O       1.499206   -3.066071    0.156878
N       1.083450   -0.754641    0.122071
C      -2.515393   -0.492584   -0.173954
O      -3.367500   -1.360147   -0.243721
H       0.683966    1.900954   -0.797493
H      -0.913307    1.997956   -0.041479
H       0.539891    1.900761    0.964015
H      -1.221462   -2.899718   -0.066425
H       2.040658   -0.454323    0.201789
H      -2.779483    0.584548   -0.195284
