21

C       0.173505    1.609924   -0.208578
C       0.044026    0.100137    0.006583
O       0.480447   -0.612382   -1.156105
C       1.871009   -0.873845   -1.019026
C       2.111500   -1.142616    0.476543
C       3.289940   -0.424017    1.156849
O       2.818510   -0.054453    2.442959
C       1.476272    0.387249    2.267096
C       0.864590   -0.518941    1.174123
H       1.215183    1.927343   -0.319872
H      -0.361237    1.882175   -1.122607
H      -0.263545    2.172172    0.622920
H      -1.018532   -0.140603    0.117082
H       2.107221   -1.725453   -1.662473
H       2.471630   -0.015797   -1.363177
H       2.162574   -2.215110    0.673588
H       4.177426   -1.046997    1.294226
H       3.582701    0.468524    0.575807
H       0.972976    0.300040    3.233357
H       1.463183    1.445474    1.970824
H       0.267231   -1.304996    1.639303
