19

C       0.129167    0.770978    0.947135
C      -0.001759   -0.005950   -0.344314
O       0.828256    0.035621   -1.223554
C      -1.225336   -0.912596   -0.476008
C      -0.844138   -2.369043   -0.135086
O      -0.433215   -2.462011    1.234946
C      -1.205225   -3.443473    1.924891
C      -2.189592   -3.949001    0.909054
C      -1.980401   -3.347642   -0.255585
H       1.060907    1.337678    0.958034
H      -0.722101    1.450846    1.069806
H       0.098897    0.063495    1.783049
H      -2.043381   -0.595223    0.177559
H      -1.558606   -0.876690   -1.517960
H       0.002926   -2.646509   -0.782445
H      -0.545734   -4.241671    2.300687
H      -1.692752   -2.988149    2.800511
H      -2.935715   -4.701221    1.130953
H      -2.518892   -3.506618   -1.180973
