21

C      -0.557496    0.918012   -1.621192
C       0.350317   -0.185208   -1.106602
C       1.876009   -0.112814   -1.377607
C       2.135726   -0.631556    0.061092
C       3.268087   -0.038277    0.880755
C       0.663347   -0.209408    0.439676
O       0.589927    1.054824    1.035341
C      -0.116816   -1.202336    1.252932
O      -0.702094   -0.893642    2.265651
H      -0.234990    1.889593   -1.239473
H      -0.538333    0.948512   -2.716059
H      -1.595902    0.763373   -1.308672
H      -0.032067   -1.168252   -1.407362
H       2.272120   -0.701863   -2.208522
H       2.209419    0.923670   -1.491132
H       2.200770   -1.726424    0.052953
H       3.149150    1.043890    0.972701
H       3.296604   -0.459064    1.891690
H       4.232819   -0.244914    0.404701
H       0.041649    0.935775    1.827732
H      -0.127053   -2.244229    0.870455
