17

C       0.769593    0.702251   -1.500587
O      -0.275755    0.391198   -0.597898
C       0.106082   -0.530069    0.407899
C       0.221715   -1.932496   -0.113924
C       1.075378   -2.976798    0.187239
C       0.615684   -4.038463   -0.623854
O       1.148837   -5.277192   -0.668193
N      -0.421790   -3.699372   -1.374939
N      -0.652296   -2.405149   -1.033110
H       1.618857    1.169635   -0.979987
H       1.134345   -0.186991   -2.032512
H       0.364219    1.411549   -2.225565
H       1.053299   -0.237430    0.884811
H      -0.679585   -0.468351    1.170114
H       1.897955   -2.981040    0.882386
H       0.634774   -5.781540   -1.311249
H      -1.366034   -1.878840   -1.506743
