20

O       0.217884    0.084968   -0.950399
C       0.113658    1.168871   -0.414290
N       1.033292    1.728717    0.412423
C       2.303532    1.104000    0.731830
C       3.458453    2.063083    0.490799
O       3.234574    3.206589    1.303842
C       4.182641    4.213847    1.124398
C       4.406124    5.129942    2.281590
C       5.484332    4.141053    1.880710
H      -0.768378    1.826377   -0.548846
H       0.871011    2.651584    0.783431
H       2.317395    0.780238    1.780493
H       2.397255    0.218497    0.099882
H       4.414327    1.584157    0.749376
H       3.497871    2.352942   -0.570639
H       4.200903    4.632780    0.117437
H       4.559037    6.184884    2.084986
H       3.848444    4.910203    3.184721
H       5.627452    3.284184    2.529483
H       6.386437    4.509932    1.405432
