19

C       0.059561    1.580766    0.025641
C       0.035052    0.051088   -0.006135
C       0.807243   -0.566985   -1.201358
C       1.279033   -1.961537   -0.733074
C       1.424675   -1.810963    0.776499
O       2.119752   -0.598035    1.151115
C       0.689056   -0.601791    1.199459
C       1.635089   -2.961519    1.607226
C       1.810738   -3.953260    2.263670
H       1.087909    1.943638    0.121888
H      -0.363504    1.998832   -0.893418
H      -0.519012    1.974061    0.868094
H      -1.009163   -0.292136   -0.027205
H       0.195184   -0.616704   -2.105229
H       1.675351    0.057578   -1.426351
H       0.526631   -2.733180   -0.931856
H       2.211340   -2.280315   -1.207614
H       0.258106   -0.509265    2.193932
H       1.968208   -4.820758    2.855658
