13

C       0.118326    1.386181   -0.217854
C       0.072818   -0.057321   -0.100076
C       0.034775   -1.264398   -0.002313
C      -0.009610   -2.612110    0.107186
C      -0.046444   -3.822677    0.204904
C      -0.096719   -5.249064    0.321367
O      -1.101620   -5.890912    0.557017
C       1.226613   -6.006876    0.131427
O       2.279387   -5.482447   -0.104629
H       1.143744    1.740364   -0.368636
H      -0.486131    1.725723   -1.066351
H      -0.277076    1.863441    0.685666
H       1.087475   -7.103111    0.240055
