16

C       0.090508    1.548688    0.072899
N       0.006014    0.108197   -0.053245
C       0.391439   -0.596471    0.932481
N       0.359780   -1.969389    0.932893
C      -0.079677   -2.768934   -0.102019
N      -0.097132   -4.090366   -0.071769
C      -0.605200   -4.389575   -1.302390
N      -0.895383   -3.356314   -2.071717
N      -0.547211   -2.307311   -1.274968
H       0.727409    1.954648   -0.721375
H      -0.903515    1.992094   -0.056064
H       0.493572    1.881335    1.042286
H       0.782628   -0.181081    1.869151
H       0.680946   -2.468697    1.746026
H      -0.763819   -5.404447   -1.634875
H      -0.629885   -1.333359   -1.532476
