20

C      -0.378104    0.592677    0.247841
O       0.880489    0.420864   -0.370602
C       0.862275   -0.473217   -1.468022
C       0.711824   -1.918530   -1.093047
C       1.797499   -2.715820   -0.425359
C       1.251072   -3.172145   -1.751563
C      -0.170261   -3.751796   -1.635832
C      -0.744784   -3.752462   -0.275665
N      -0.709359   -2.483175   -1.032487
H      -1.138652    0.932461   -0.472081
H      -0.744895   -0.330111    0.716744
H      -0.252163    1.357810    1.018361
H       0.060385   -0.202024   -2.173184
H       1.824418   -0.337569   -1.974394
H       2.767860   -2.233366   -0.494452
H       1.668868   -3.276442    0.493187
H       1.859533   -3.267103   -2.641442
H      -0.674030   -4.213071   -2.479540
H      -1.759794   -4.127932   -0.177462
H      -0.140014   -3.893020    0.612253
