18

C       0.054524    1.385329   -0.247889
C      -0.044199   -0.102319   -0.007811
N       1.049416   -0.998176   -0.290949
C       2.249149   -0.713381   -0.904595
O       2.372181   -0.035570   -1.897850
C       0.689725   -0.835877    1.118283
C       1.628657   -0.098741    2.060448
C       0.023849   -1.968713    1.723430
C      -0.530525   -2.889645    2.261004
H       1.013294    1.803007    0.061896
H      -0.060338    1.593550   -1.315019
H      -0.744521    1.901046    0.293902
H      -1.014313   -0.527809   -0.260973
H       3.092117   -1.247308   -0.425170
H       2.126645    0.737201    1.565791
H       1.069641    0.283352    2.919282
H       2.395440   -0.780004    2.439966
H      -1.021332   -3.711162    2.721779
