16

C       0.176461    1.424272    0.069589
O      -0.133984    0.058321   -0.162344
C       0.591683   -0.539117   -1.205258
C       2.044090   -0.579887   -0.933680
N       3.181532   -0.572334   -0.733346
C       0.027295   -1.966891   -1.393330
O       0.321737   -2.795253   -0.317691
C      -1.479587   -1.857935   -1.600998
O      -2.250413   -2.461470   -0.901493
H       1.220317    1.550466    0.382577
H      -0.003950    2.032310   -0.828810
H      -0.484279    1.759861    0.870214
H       0.455283    0.018313   -2.149266
H       0.465431   -2.368647   -2.322937
H      -0.528042   -3.000794    0.103212
H      -1.819151   -1.207872   -2.432354
