16

O      -0.135953   -0.056738    0.072326
C       0.001034    1.127269    0.045515
O      -1.092021    1.975478   -0.064535
C      -0.750235    3.381739    0.015426
C       0.673523    3.319908    0.504833
C       2.109962    3.911104    0.528998
C       2.150195    2.460892    1.144467
N       0.879142    2.742829    1.907107
C       1.241490    2.003231   -0.029353
H      -0.845082    3.837000   -0.976624
H      -1.449753    3.856208    0.707827
H       2.608551    4.086981   -0.429169
H       2.291617    4.725008    1.236195
H       2.997696    1.943673    1.594162
H       1.035778    3.511294    2.566120
H       1.680435    2.007672   -1.029319
