21

C      -0.298053    1.516744   -0.041736
C       0.047181    0.032342   -0.073475
C       1.252884   -0.491469   -0.921657
C       1.790730   -1.231748    0.310454
C       2.072564   -0.260538    1.415258
O       2.529859    1.046926    1.198442
C       0.642313   -0.641739    1.178833
C      -0.198177   -1.262571    2.256354
O      -0.917134   -0.284850    3.002498
H       0.580534    2.120295    0.193014
H      -0.699282    1.843808   -1.007872
H      -1.060937    1.706934    0.720530
H      -0.845598   -0.536558   -0.357467
H       0.952837   -1.154513   -1.735024
H       1.920238    0.277592   -1.322162
H       2.202431   -2.235207    0.314556
H       2.491563   -0.727603    2.309701
H       3.429317    0.993912    0.857315
H      -0.964592   -1.913057    1.819325
H       0.426574   -1.890527    2.913118
H      -0.275240    0.358163    3.322809
