12

N      -0.034434    1.271356   -0.220966
C       0.008700    0.037009   -0.003840
O       1.102599   -0.735628    0.238649
C       0.668354   -2.074139    0.479799
O      -0.614705   -2.188330   -0.092444
C      -1.200370   -0.902871    0.007789
C      -1.994477   -0.752453    1.242955
N      -2.609405   -0.661074    2.216127
H       0.891913    1.696913   -0.175952
H       1.342607   -2.770301   -0.022214
H       0.647429   -2.252310    1.563997
H      -1.840893   -0.732618   -0.859664
