15

N       0.017443   -1.156875   -0.096229
C       0.027957   -0.002713   -0.008974
C       0.024080    1.415661    0.098780
N       0.256741    2.312032   -1.076961
C       1.159293    2.403785    0.079204
C       0.457247    3.294511    1.117061
C      -0.713887    2.285612    1.114720
C      -2.143662    2.408083    1.370828
O      -1.248630    1.758457    2.299948
H       0.716093    1.751101   -1.795615
H       2.217939    2.198542   -0.010451
H       0.955845    3.290082    2.088849
H       0.248711    4.316567    0.796250
H      -2.550618    3.358124    1.711386
H      -2.843516    1.747679    0.862855
