17

N       0.086391   -3.766239   -0.163687
C       0.062820   -2.605377   -0.125269
C       0.034040   -1.241235   -0.078451
C       0.009104   -0.034297   -0.040859
C      -0.021344    1.422417    0.027711
N       1.309951    1.988983    0.119315
C       2.072083    1.829219    1.378087
C       2.607561    3.268663    1.186668
C       1.423703    3.460948    0.208573
H      -0.502682    1.808934   -0.880687
H      -0.672203    1.717396    0.877108
H       1.422474    1.745200    2.264876
H       2.784681    0.999947    1.380976
H       2.635330    3.910902    2.066471
H       3.575072    3.293320    0.683316
H       1.606185    3.964961   -0.745622
H       0.556296    3.931635    0.700878
