17

C      -0.089236    1.454594    0.083010
C       0.124504   -0.044710    0.094971
O       0.391239   -0.658927    1.093839
C       0.020803   -0.776017   -1.294181
C      -1.152766   -0.238321   -2.141562
C       1.369637   -0.461113   -1.989650
O       1.534421    0.470816   -2.729209
C      -0.064607   -2.217625   -1.105101
C      -0.113080   -3.413926   -1.008233
H       0.449072    1.924974   -0.744670
H      -1.152389    1.679701   -0.053249
H       0.240799    1.865456    1.037596
H      -0.978540    0.800622   -2.422626
H      -1.241221   -0.827251   -3.056987
H      -2.093045   -0.318746   -1.591022
H       2.185557   -1.162569   -1.724166
H      -0.167408   -4.469006   -0.897687
