18

C       0.080857    1.552325   -0.069044
C       0.004537    0.025185   -0.007580
C      -1.436595   -0.497498    0.027518
O      -2.192636   -0.073512   -1.092281
C      -1.462637   -2.042040    0.170012
C      -2.805290   -2.585582    0.262611
C      -3.924838   -3.030821    0.351302
C      -5.188486   -3.536809    0.450570
N      -6.262929   -3.970719    0.536392
H       1.117682    1.890915   -0.148552
H      -0.474920    1.933312   -0.929484
H      -0.351460    2.003000    0.830642
H       0.514347   -0.412997   -0.878800
H       0.539412   -0.344847    0.875959
H      -1.957593   -0.067472    0.890935
H      -1.742947   -0.371633   -1.891635
H      -0.946819   -2.490573   -0.690999
H      -0.890419   -2.335858    1.059211
