17

O      -0.031171    1.365978    0.025592
C       0.015663   -0.033509    0.030532
C      -0.275187   -0.695184    1.344425
C       1.125869   -0.731785    0.778175
O       1.586098   -1.960410    0.295233
C       1.755423   -2.038546   -1.109384
C       0.497555   -1.665711   -1.871581
O      -0.736920   -2.057835   -1.267568
C      -0.400432   -0.669128   -1.271890
H       0.681972    1.691516   -0.535590
H      -0.459671   -0.036202    2.184672
H      -0.829240   -1.625613    1.320375
H       1.889193   -0.112728    1.247464
H       2.580836   -1.394641   -1.459559
H       2.034224   -3.077330   -1.312158
H       0.547779   -1.782884   -2.954281
H      -1.031434   -0.038220   -1.897048
