17

C      -0.021890    1.452783    0.012756
N      -0.000179    0.007959    0.042012
C      -0.017925   -0.757105   -1.115273
O      -0.052466   -0.320355   -2.245513
C       0.014555   -2.218694   -0.654687
C       0.050294   -2.109838    0.843906
C       0.040291   -0.816092    1.191339
C       0.065162   -0.202050    2.551066
H       0.873339    1.881903    0.476445
H      -0.051869    1.744251   -1.038748
H      -0.905445    1.856089    0.519980
H      -0.866108   -2.742262   -1.045280
H       0.889377   -2.717010   -1.088988
H       0.079406   -2.941215    1.531854
H       0.095890   -0.984754    3.311606
H       0.940751    0.443193    2.687984
H      -0.821371    0.416856    2.732087
