19

C       0.092194    1.452185    0.048787
C       0.063698   -0.050897   -0.044510
C       0.202853   -0.784361   -1.368701
C       0.118904   -2.215153   -0.871983
C      -0.791425   -2.302536    0.340661
C       0.713928   -2.339369    0.517885
C       0.660327   -0.888178    1.079781
O       1.391903   -0.397253    2.140783
C      -0.834463   -0.860895    0.903123
H       1.009651    1.859561   -0.393130
H      -0.755199    1.903124   -0.479515
H       0.055328    1.779348    1.091993
H      -0.605980   -0.539608   -2.067792
H       1.158789   -0.565393   -1.861391
H       0.179426   -3.058063   -1.551173
H      -1.519909   -3.083871    0.508197
H       1.349381   -3.143671    0.863064
H       2.255879   -0.121018    1.812618
H      -1.603024   -0.419120    1.522526
