17

C      -0.019922    1.386483   -0.310205
C       1.445341    1.537973    0.138055
C       1.266021    0.119464    0.737480
O      -0.081364    0.035685    0.202089
C       2.184831   -0.990225    0.287820
C       2.680979   -1.684853    1.315509
C       2.184421   -1.121756    2.608174
O       2.583176    0.258606    2.823388
C       1.298113   -0.004842    2.261189
H      -0.739870    2.044963    0.190892
H      -0.202416    1.419612   -1.390148
H       2.171601    1.592144   -0.674285
H       1.661311    2.321641    0.864869
H       2.418072   -1.142381   -0.759986
H       3.375546   -2.513377    1.251592
H       2.092527   -1.717776    3.510184
H       0.431219    0.300251    2.841627
