23

C      -0.010763    1.451651   -0.091713
C       0.004574   -0.083266   -0.145099
C       0.715971   -0.581964   -1.405624
O       0.005634   -0.106426   -2.541092
C       0.680827   -0.665438    1.093764
C       0.009563   -0.623823    2.507169
C      -0.917561   -1.792483    2.059195
C       0.504095   -2.158262    1.538674
C       1.034785   -1.714484    2.932435
H       1.006474    1.848254    0.016134
H      -0.437193    1.862575   -1.009380
H      -0.599564    1.811776    0.757503
H      -1.031380   -0.432235   -0.218098
H       1.757498   -0.217821   -1.408294
H       0.753405   -1.682734   -1.398514
H       0.482613   -0.377978   -3.330244
H       1.728977   -0.335526    1.115396
H      -0.275536    0.263921    3.074526
H      -1.312277   -2.425167    2.859236
H      -1.691443   -1.576892    1.321643
H       0.792388   -3.053328    0.983974
H       2.084100   -1.410565    2.987149
H       0.752600   -2.341911    3.782144
