16

C      -0.125627    1.331085   -0.103774
O       0.379066    0.004997   -0.007655
C       0.706846   -0.545615   -1.242172
C       1.155928   -2.029186   -1.146044
O       0.056348   -2.407523   -2.055737
C      -0.426202   -1.116098   -2.090990
N      -1.454840   -0.636639   -2.621187
C       2.461418   -2.395969   -1.644434
C       3.555262   -2.684157   -2.048840
H       0.619868    2.004636   -0.552002
H      -1.043049    1.366757   -0.701962
H      -0.337133    1.658913    0.915687
H       1.398055    0.089942   -1.813054
H       0.963895   -2.437605   -0.150271
H      -2.011272   -1.355043   -3.088866
H       4.521152   -2.945990   -2.405690
