25

C       0.348786    1.547958   -1.239721
C       0.334899    0.322571   -0.316294
C      -1.036198   -0.305010   -0.241152
O      -1.462261   -1.068430   -1.377341
C      -1.315191   -1.750698   -0.112931
C      -0.181958   -2.780805   -0.034916
C       0.104368   -3.490764   -1.364748
C      -2.642278   -2.167489    0.503742
C      -3.289071   -3.376953   -0.182967
H       1.347719    1.990711   -1.293275
H       0.044554    1.266899   -2.252343
H      -0.341683    2.320711   -0.884583
H       1.060891   -0.413196   -0.674443
H       0.644396    0.613168    0.696604
H      -1.807253    0.374722    0.134789
H       0.736594   -2.301514    0.319332
H      -0.444379   -3.520997    0.729418
H       0.939793   -4.189082   -1.255256
H      -0.764432   -4.055754   -1.715173
H       0.354845   -2.764544   -2.141257
H      -2.481874   -2.383623    1.568380
H      -3.329370   -1.315990    0.453283
H      -4.262823   -3.600537    0.263254
H      -3.441836   -3.176087   -1.247551
H      -2.671481   -4.275973   -0.092288
