21

C      -0.131315    1.379232    0.012161
O       0.031988   -0.021897    0.003128
C       0.718172   -0.533239   -1.133262
C       1.359413   -1.856551   -0.703145
C       2.480915   -2.352668   -1.629064
O       2.325113   -2.045565   -3.010918
C       1.053802   -2.212237   -3.573376
O       0.281784   -1.042068   -3.533883
C      -0.294671   -0.733489   -2.279290
H       0.838632    1.898987   -0.016743
H      -0.740184    1.744651   -0.827552
H      -0.641334    1.635583    0.944093
H       1.495284    0.174669   -1.460594
H       1.775027   -1.725493    0.301015
H       0.567880   -2.609016   -0.609410
H       3.427650   -1.877986   -1.353397
H       2.610197   -3.437596   -1.496856
H       1.209310   -2.422910   -4.634435
H       0.514626   -3.052196   -3.100966
H      -1.007582   -1.516304   -1.972134
H      -0.860487    0.187983   -2.439308
