19

C       0.010858    1.569356   -0.021274
C       0.060883    0.040622   -0.007502
C       0.726070   -0.535730   -1.263168
C       0.966973   -2.022153   -1.050643
O       1.726543   -2.256055    0.141506
C       1.478760   -1.424163    1.194721
C       2.239009   -1.882404    2.405177
N       0.732497   -0.399027    1.217865
H       1.023250    1.985358   -0.058256
H      -0.545729    1.936650   -0.890048
H      -0.470418    1.938650    0.887882
H      -0.975219   -0.328389    0.037684
H       0.105998   -0.379368   -2.152220
H       1.685054   -0.032132   -1.436432
H       0.013600   -2.561684   -0.967959
H       1.543158   -2.473240   -1.862541
H       3.310505   -1.923581    2.184250
H       2.058486   -1.196110    3.231285
H       1.929777   -2.893700    2.688603
