15

O       0.190747    1.427374   -0.108674
C       0.096187    0.011761   -0.094396
C      -1.308688   -0.426726    0.027259
C      -2.448454   -0.776467    0.171881
C       0.686655   -0.512832   -1.331341
C       1.190103   -0.981062   -2.315084
C       0.890959   -0.542464    1.111557
C       2.111797    0.127412    1.555576
O       0.862267    0.305098    2.254358
H       0.045839    1.696618    0.811484
H      -3.460416   -1.080267    0.282762
H       1.625035   -1.383785   -3.196701
H       0.742071   -1.602061    1.306748
H       2.864050   -0.437623    2.100733
H       2.460114    1.002012    1.013722
