25

C      -0.401796    1.446978   -0.027773
C      -0.267290   -0.072522   -0.212521
C       0.702562   -0.519620   -1.322219
C       2.086036    0.105335   -1.156429
C       0.697143   -2.082015   -1.541551
C       0.373061   -3.038953   -0.402278
C      -0.334053   -1.900035   -2.686346
C       0.079739   -0.414572   -2.763956
O      -0.886823    0.561933   -3.078621
H       0.527628    1.890988    0.340141
H      -0.657299    1.939576   -0.969231
H      -1.182807    1.675380    0.704814
H       0.059096   -0.518244    0.735677
H      -1.263076   -0.497569   -0.400296
H       2.512725   -0.117841   -0.170619
H       2.778531   -0.281808   -1.911691
H       2.056222    1.193983   -1.266386
H       1.664235   -2.365905   -1.972928
H      -0.604153   -2.830519    0.044395
H       0.353734   -4.072791   -0.765013
H       1.123211   -2.985742    0.394969
H      -0.230544   -2.510492   -3.586669
H      -1.361800   -2.004516   -2.316904
H       0.880126   -0.269002   -3.496612
H      -1.674811    0.380135   -2.556570
