23

C      -0.529403    1.666972   -0.619636
C       0.265935    0.495325   -0.057245
C      -0.548206   -0.337185    0.935842
O       0.656346   -0.312282   -1.177415
C       1.833396   -1.078690   -1.012306
C       1.666489   -2.385718   -1.786354
C       3.059101   -0.317902   -1.502286
C       2.965224    0.716221   -2.537140
O       3.151787    1.063317   -1.158129
H       0.096889    2.267216   -1.284296
H      -1.392105    1.303753   -1.187702
H      -0.893885    2.309539    0.187658
H       1.167176    0.883261    0.432398
H      -1.453269   -0.722789    0.455345
H       0.027419   -1.189513    1.310922
H      -0.843898    0.269097    1.798377
H       1.986565   -1.312846    0.052812
H       2.568523   -3.002356   -1.719946
H       0.824986   -2.955335   -1.384675
H       1.466630   -2.176073   -2.841430
H       3.998669   -0.866076   -1.403763
H       3.818575    0.914563   -3.183581
H       1.986802    0.960835   -2.941792
