16

N       0.080995    1.392216   -0.058042
C      -0.063559    0.055716   -0.261868
N      -0.937176   -0.632199    0.366104
C      -1.022598   -2.055743    0.181871
C      -1.087176   -2.877620    1.510821
O      -2.378451   -3.412778    1.183161
C      -2.479566   -2.594793    0.007763
C      -0.082038   -2.618347   -0.795967
N       0.678674   -3.006901   -1.576067
H       0.587649    1.938457   -0.732332
H      -0.631446    1.864438    0.476472
H       0.652599   -0.363155   -0.978062
H      -0.330153   -3.658061    1.637914
H      -1.110283   -2.218805    2.385681
H      -3.216100   -1.790645    0.112297
H      -2.677388   -3.181653   -0.894912
