16

O      -0.093203    1.327379    0.254284
C      -0.001171    0.006380   -0.022031
C       0.078868   -0.739475   -1.173025
C       0.188335   -0.749043   -2.669531
C      -0.092842   -2.261610   -2.964252
N       0.296274   -2.985028   -1.729456
C       0.136874   -2.064672   -0.693089
N       0.083357   -2.191751    0.616718
N       0.012321   -0.868052    1.018416
H      -0.056649    1.815989   -0.573387
H      -0.525128   -0.111289   -3.200937
H       1.193223   -0.472210   -3.015213
H      -1.162964   -2.393392   -3.182162
H       0.476500   -2.629653   -3.821960
H      -0.151359   -3.882148   -1.598675
H      -0.131178   -0.647501    1.987740
