18

O      -0.098019    1.433838    0.066601
C       0.003994    0.056355    0.057318
C      -0.173062   -0.767099   -1.183028
C      -1.142727   -0.941474   -0.027952
C      -0.518909   -1.771671    1.101184
C      -0.229116   -3.254125    0.816565
C       0.501806   -3.896849    1.907090
N       1.081101   -4.383593    2.780780
C       0.681312   -0.764477    1.164908
H       0.656127    1.799438   -0.409027
H      -0.594890   -0.221586   -2.021122
H       0.537605   -1.541947   -1.463176
H      -2.202547   -0.760674   -0.158865
H      -1.117563   -1.700366    2.012368
H      -1.169035   -3.796282    0.659118
H       0.355283   -3.365309   -0.103464
H       1.676241   -1.163095    0.939446
H       0.719039   -0.231654    2.116338
