17

N       0.004605   -1.055241   -0.762381
C      -0.012802    0.009732   -0.314932
C      -0.006336    1.353418    0.264150
C       1.381214    1.975725    0.249586
N       1.756873    2.679913   -0.987517
C       1.575823    3.440336    0.236207
C       0.603684    4.601673    0.425184
O       1.587351    5.308016    1.214961
C       2.584383    4.286076    1.010616
H      -0.694422    1.986903   -0.304447
H      -0.384949    1.292741    1.291422
H       2.144959    1.384338    0.751745
H       2.740962    2.547773   -1.208066
H       0.346988    5.134166   -0.498689
H      -0.310532    4.397277    0.996566
H       2.954169    3.869813    1.956039
H       3.435562    4.650660    0.418500
