16

N       0.003732    1.402332   -0.153449
C       0.046071    0.023764   -0.028978
N      -1.063971   -0.698413    0.014310
O      -0.655375   -2.056865    0.061178
C       0.677532   -2.064272    0.044510
C       1.190897   -0.820460   -0.012479
N       2.607921   -0.769690    0.025260
C       2.986377   -2.201406    0.284883
C       1.730732   -3.123116    0.041351
H       0.728847    1.874528    0.369568
H      -0.911187    1.783335    0.050687
H       2.990513   -0.455584   -0.862361
H       3.842813   -2.485410   -0.330156
H       3.286894   -2.283464    1.333982
H       1.628549   -3.867286    0.835606
H       1.767142   -3.663668   -0.913531
