22

C      -0.125350    1.542399   -0.025765
C       0.058824    0.021670   -0.026454
C       0.706924   -0.499577   -1.314077
C       0.788350   -2.028994   -1.268102
C       1.362758   -2.558585    0.024938
N       2.060691   -3.615588    0.050171
O       0.994129   -1.919593    1.177448
C       0.844398   -0.479778    1.197811
C       2.220176    0.154342    1.410438
H       0.821258    2.066662   -0.191076
H      -0.810287    1.842311   -0.825070
H      -0.545414    1.897127    0.921812
H      -0.936744   -0.438552    0.047324
H       0.125050   -0.181841   -2.185986
H       1.707503   -0.067009   -1.436463
H      -0.227875   -2.437954   -1.354073
H       1.370512   -2.444894   -2.091780
H       2.317940   -3.833085    1.015919
H       0.240247   -0.301185    2.093851
H       2.872620    0.016578    0.542861
H       2.132467    1.226131    1.608226
H       2.704068   -0.313900    2.271364
