18

C       0.000410    0.794275    2.277020
C      -0.119786    0.301244    0.865580
N       0.674678    0.671778   -0.045118
N      -1.226053   -0.613530    0.616748
C      -1.153926   -1.914580    1.122509
N      -0.125110   -2.316987    1.749293
C      -2.385299   -0.223346   -0.080478
C      -2.446516    1.219852   -0.537771
O      -3.283413   -1.009016   -0.291199
H       0.180666   -0.054337    2.941870
H       0.828120    1.499871    2.346417
H      -0.928482    1.278918    2.598029
H       0.459687    0.209108   -0.930707
H      -2.057439   -2.480334    0.894554
H      -0.251276   -3.283444    2.043714
H      -1.771885    1.391317   -1.381388
H      -3.469312    1.419407   -0.855573
H      -2.156836    1.917541    0.252410
