19

C      -0.228669    1.550494    0.123087
C      -0.114260    0.035446   -0.053565
C      -1.418033   -0.671819    0.328865
C       0.554451   -0.516403   -1.345835
C       1.133585    0.407218   -2.399018
O       1.919243   -0.317869   -3.324733
O       1.646671   -1.092077   -0.535209
C       1.113040   -0.590069    0.626883
O       1.552021   -0.684799    1.727545
H       0.702512    2.073108   -0.108164
H      -1.019557    1.956645   -0.515964
H      -0.484977    1.778189    1.161858
H      -2.243722   -0.315640   -0.296095
H      -1.339969   -1.756320    0.207406
H      -1.667786   -0.465770    1.373726
H       0.003908   -1.329952   -1.826781
H       0.322115    0.872083   -2.969575
H       1.713580    1.209941   -1.921239
H       2.614447   -0.755974   -2.819969
