18

N      -0.023932   -1.117323   -0.229531
C      -0.016769    0.028337   -0.078556
C       0.024482    1.477861    0.111786
C       1.455859    2.024714    0.128653
C       2.272220    1.996056   -1.199948
C       2.722354    3.421698   -0.872796
C       4.074047    3.981713   -0.872773
O       3.079540    4.402012   -1.821596
C       1.621141    3.574623    0.179669
H      -0.550489    1.951579   -0.693026
H      -0.487245    1.720529    1.050814
H       2.016852    1.547238    0.935880
H       3.036717    1.225055   -1.310892
H       1.620952    1.979553   -2.080225
H       4.352974    4.728433   -0.130254
H       4.899805    3.405924   -1.288891
H       0.750571    4.094380   -0.234888
H       1.881709    4.027755    1.138642
