19

O      -0.001494    1.395223   -0.019120
C       0.044944    0.013500    0.043242
C      -0.138423   -0.850885   -1.171297
C      -1.135330   -0.953435   -0.038976
C      -0.573514   -1.774631    1.138242
C       0.109571   -3.133972    0.911753
C       1.610618   -2.789178    0.711146
O       1.827151   -1.453029    1.170512
C       0.599795   -0.762393    1.255451
H       0.792289    1.703564   -0.470287
H      -0.512238   -0.296274   -2.026848
H       0.533388   -1.662369   -1.429336
H      -2.183591   -0.730110   -0.192678
H      -1.245174   -1.781768    1.997329
H      -0.019426   -3.770115    1.791429
H      -0.294380   -3.675231    0.052192
H       2.270439   -3.447388    1.286909
H       1.902500   -2.877030   -0.344105
H       0.606235   -0.133273    2.150088
