21

C       0.189510    1.582624    0.152743
C       0.349708    0.058902    0.103120
C       0.700386   -0.481245   -1.285510
O      -0.293656   -0.173172   -2.241760
C       2.181444   -0.225366   -1.715803
C       2.533680   -1.670573   -1.283130
C       1.011765   -2.017979   -1.314812
C       0.460133   -2.894703   -0.304208
C       0.017366   -3.615586    0.551431
H       1.091111    2.101474   -0.190945
H      -0.652441    1.924860   -0.460708
H      -0.012891    1.916136    1.174488
H       1.128574   -0.250274    0.809692
H      -0.575868   -0.424779    0.433252
H      -0.446989    0.777421   -2.227365
H       2.238656   -0.094338   -2.799060
H       2.717312    0.590939   -1.226001
H       3.176266   -2.255385   -1.942878
H       2.933512   -1.720635   -0.268179
H       0.736035   -2.372630   -2.313107
H      -0.378131   -4.258245    1.298253
