15

C       0.049061    1.532118   -0.012598
C       0.042157    0.037097   -0.024191
C       0.001896   -0.810778   -1.123810
O      -0.052839   -0.614837   -2.456230
N       0.021553   -2.077924   -0.643062
C       0.073962   -1.983133    0.738346
C       0.103138   -3.178213    1.568616
O       0.147586   -3.203167    2.776453
N       0.086766   -0.714377    1.111213
H       1.053352    1.936497    0.158685
H      -0.319431    1.949132   -0.957387
H      -0.595717    1.906034    0.787044
H      -0.038234    0.332074   -2.631137
H      -0.003927   -2.915955   -1.202034
H       0.080335   -4.121501    0.969483
