16

O      -0.095903    1.413043    0.033785
C       0.030732    0.003621   -0.017389
C      -1.382437   -0.571698    0.014239
C      -1.400016   -2.119768   -0.039558
C      -0.781358   -2.685040    1.230487
O       0.205159   -3.371153    1.263389
C      -2.847318   -2.579141   -0.160942
O      -3.294685   -3.161387   -1.111668
H       0.784323    1.798413   -0.005879
H       0.541269   -0.325797   -0.935999
H       0.615932   -0.379841    0.833450
H      -1.888101   -0.218932    0.921676
H      -1.944193   -0.171872   -0.836252
H      -0.844047   -2.496658   -0.901590
H      -1.316955   -2.397742    2.165569
H      -3.490781   -2.309345    0.707744
