20

C      -0.020645    1.422318    0.242312
O      -0.020652    0.066675   -0.171112
C      -1.271343   -0.571161   -0.067200
C      -1.181511   -1.931976   -0.769353
C      -0.919322   -1.790721   -2.270296
C      -0.794462   -3.139694   -2.966777
O      -0.570966   -2.892383   -4.345369
C      -1.669881   -0.736497    1.352031
N      -1.974988   -0.858308    2.459946
H       0.990783    1.799060    0.080280
H      -0.727854    2.020872   -0.350530
H      -0.276550    1.521496    1.305597
H      -2.053170    0.039404   -0.550821
H      -0.381272   -2.505262   -0.287970
H      -2.117742   -2.472203   -0.588371
H      -1.734205   -1.229894   -2.744948
H      -0.001116   -1.219689   -2.434331
H       0.036534   -3.711409   -2.521890
H      -1.713650   -3.728727   -2.810147
H      -0.478778   -3.738466   -4.792781
