19

O      -0.042762   -0.108788   -0.089382
C       0.054088    1.091801   -0.158017
C       1.340512    1.846391   -0.106692
C       1.756578    2.633320    1.206144
C       3.164245    2.549751    0.515616
C       2.712528    1.144462    0.033426
C       2.925919    3.473336   -0.695912
C       2.755096    2.890822   -2.078532
C       1.567880    2.966475   -1.151849
H      -0.855061    1.733180   -0.248126
H       1.319167    3.624381    1.352140
H       1.672471    2.028980    2.113322
H       4.083927    2.688119    1.083757
H       2.696188    0.418882    0.847340
H       3.175516    0.690412   -0.841677
H       3.135704    4.531269   -0.586741
H       2.753415    3.614176   -2.888442
H       3.199626    1.943292   -2.356519
H       0.742213    3.631391   -1.380199
