21

C      -0.147372    1.591292    0.070270
C       0.033985    0.074221    0.019215
C      -1.308146   -0.619750   -0.234123
C       1.139682   -0.490833   -0.945349
C       1.765034   -1.240973    0.238584
O       2.155824   -2.571689    0.201282
C       2.217549   -0.292190    1.306175
O       2.711647    1.000642    1.075326
C       0.752397   -0.607231    1.206626
H       0.801932    2.100111    0.237320
H      -0.584328    1.956970   -0.866902
H      -0.831625    1.869964    0.880420
H      -1.740254   -0.292759   -1.186753
H      -1.194910   -1.708386   -0.267177
H      -2.026385   -0.381167    0.559115
H       0.732998   -1.167651   -1.699674
H       1.784126    0.249259   -1.429475
H       3.057823   -2.617411   -0.135437
H       2.688612   -0.809087    2.144660
H       3.603484    0.921526    0.720761
H       0.231392   -1.053292    2.047628
