16

C      -0.151208    1.572716   -0.022778
C       0.063077    0.057907    0.009536
N       0.712320   -0.456490   -1.186970
C       0.113175   -0.665785   -2.424302
C       0.957294   -1.120677   -3.378387
C       2.276407   -1.243076   -2.763900
O       3.337980   -1.607010   -3.205975
C       2.064612   -0.776810   -1.272345
O       2.871678   -0.705767   -0.383316
H       0.804754    2.095654   -0.113213
H      -0.785959    1.869313   -0.864035
H      -0.638187    1.902517    0.899805
H       0.713387   -0.217397    0.843780
H      -0.890197   -0.466144    0.142746
H      -0.946268   -0.461103   -2.520062
H       0.707795   -1.357569   -4.399868
