17

C       0.041831    1.519193   -0.170041
C      -0.020143    0.006170    0.033949
N       0.624149   -0.736002   -1.067187
C       1.869980   -1.139862   -0.588039
N       2.810584   -1.556816   -1.500542
N       2.065453   -1.085269    0.680136
C       0.826454   -0.542036    1.247380
C       1.086244    0.464823    2.284945
N       1.261980    1.257015    3.107440
H       1.077935    1.865219   -0.238556
H      -0.481625    1.799211   -1.090630
H      -0.435407    2.044188    0.661351
H      -1.062207   -0.309498    0.135831
H       0.639355   -0.255953   -1.958944
H       2.445233   -2.064800   -2.293129
H       3.598335   -2.015631   -1.065431
H       0.267809   -1.353387    1.735499
