17

C       0.100979    1.530616    0.115180
C      -0.007383    0.044188    0.007486
C      -0.149448   -0.683173   -1.107226
C      -0.122372   -2.137927   -0.799407
O       1.114376   -2.595308   -0.174434
C       0.035548   -2.261662    0.677563
C       0.067535   -0.846028    1.240116
C      -0.806025   -3.171934   -1.614462
O      -1.547700   -2.922494   -2.531803
H       1.075920    1.826300    0.522812
H      -0.019822    2.012900   -0.857979
H      -0.657870    1.934099    0.797248
H      -0.248075   -0.302092   -2.114872
H      -0.380739   -3.084671    1.253955
H       0.979946   -0.671100    1.823514
H      -0.780100   -0.671988    1.915553
H      -0.566114   -4.212293   -1.304383
