21

C      -0.988015    1.077820   -0.011493
C      -0.006741   -0.083819   -0.025404
C       1.259494    0.026811   -0.924352
C       2.134570   -0.536104    0.239276
O       2.468388   -1.901822    0.105186
C       3.287623    0.368114    0.727940
C       2.608067    1.259074    1.741577
C       1.351532    0.887429    1.998069
C       0.929615   -0.320492    1.208456
H      -0.481824    2.020163    0.224074
H      -1.471930    1.193167   -0.987906
H      -1.777632    0.926916    0.733587
H      -0.538019   -1.014556   -0.247898
H       1.261527   -0.572308   -1.839102
H       1.509569    1.061796   -1.176859
H       3.077510   -1.986956   -0.636375
H       4.079037   -0.237630    1.190370
H       3.752579    0.933630   -0.090704
H       3.117522    2.091352    2.216299
H       0.696675    1.381244    2.708485
H       0.655581   -1.169434    1.842916
