18

O       0.024889   -0.051722    0.055747
C       0.009307    1.167320    0.015260
N      -1.150524    1.887650    0.027945
C      -1.242682    3.337983   -0.030369
C       0.076521    3.932753    0.448300
O       1.146386    3.354433   -0.278410
C       1.273781    1.983426   -0.005166
C       2.372821    1.545451    0.951510
C       2.516502    1.332657   -0.531313
H      -1.991666    1.330584   -0.001298
H      -1.449525    3.681279   -1.053631
H      -2.063317    3.680293    0.610974
H       0.104623    5.008299    0.257603
H       0.203296    3.760452    1.527911
H       2.947350    2.345679    1.403877
H       2.173242    0.681859    1.574350
H       2.405016    0.325814   -0.914156
H       3.191737    1.984700   -1.073000
