25

C      -0.034505    1.627525   -0.084564
C       0.031515    0.105777    0.076983
C      -1.353522   -0.552313    0.042686
C      -1.354805   -2.092690    0.096818
C      -0.784907   -2.621625    1.420944
C      -2.780559   -2.618471   -0.166063
C      -2.877950   -4.140856   -0.376735
C      -4.307017   -4.577003   -0.598330
O      -4.710587   -5.173727   -1.563086
H       0.963697    2.075568   -0.058914
H      -0.500404    1.905286   -1.036607
H      -0.625204    2.085439    0.716740
H       0.653074   -0.320258   -0.722129
H       0.539958   -0.132838    1.018394
H      -1.961468   -0.163168    0.872699
H      -1.864175   -0.235874   -0.877072
H      -0.712584   -2.454308   -0.720255
H      -0.759728   -3.714894    1.448509
H       0.239255   -2.275821    1.583763
H      -1.390736   -2.279334    2.269074
H      -3.431683   -2.323495    0.669206
H      -3.181287   -2.119412   -1.057120
H      -2.277017   -4.467094   -1.231109
H      -2.515162   -4.665429    0.517753
H      -5.002732   -4.289752    0.226577
