18

O       0.109721    1.302747   -0.330909
C       0.046034   -0.066693   -0.016181
C       0.189008   -0.416810    1.539978
C      -1.369373   -0.444436    1.611809
C      -2.296958    0.765333    1.520154
N      -2.890532   -0.103800    0.407012
C      -2.590463   -1.384543    1.269533
C      -1.858826   -2.067726    0.115270
C      -1.416791   -0.602763    0.099036
H       1.020621    1.593794   -0.216003
H       0.684020   -0.663034   -0.685166
H       0.666347   -1.387382    1.699587
H       0.694904    0.335739    2.152565
H      -2.995797    0.941318    2.345732
H      -1.883213    1.705543    1.149999
H      -3.380127   -1.765126    1.925642
H      -1.105034   -2.811718    0.386496
H      -2.474850   -2.405414   -0.722434
