18

O       0.822954   -0.782481   -1.155681
C       0.207327   -0.087440   -0.084937
C      -1.269201   -0.428411   -0.015236
C      -2.251688    0.309400    0.965240
C      -1.761335    1.376908    1.817132
C      -1.338459    2.261697    2.513761
C      -3.034248    0.697114   -0.302156
C      -2.183059    1.438024   -1.242803
N      -2.086612   -0.040624   -1.227335
H       0.280401   -0.631859   -1.938538
H       0.703849   -0.413899    0.835182
H       0.364761    0.998038   -0.163460
H      -1.366252   -1.510974    0.097120
H      -2.797596   -0.422170    1.566300
H      -0.971893    3.042407    3.133486
H      -4.111477    0.619860   -0.402834
H      -2.644279    1.805828   -2.153600
H      -1.368385    2.049759   -0.866978
