17

N      -0.031726    1.341648    0.407717
C       0.024549    0.140526    0.011672
C      -1.261398   -0.655199   -0.121173
N      -1.507305   -1.242927   -1.429105
C      -0.825788   -2.300080   -1.965228
O      -1.192726   -2.868719   -2.974279
C       0.464997   -2.653803   -1.234064
C       1.447623   -1.480114   -1.168636
O       1.216130   -0.503456   -0.143500
H       0.913869    1.721617    0.498244
H      -1.268939   -1.427933    0.660631
H      -2.069444    0.040471    0.098016
H      -2.359039   -0.996217   -1.910040
H       0.262686   -3.024796   -0.222260
H       0.925480   -3.465886   -1.800313
H       2.447873   -1.855513   -0.941423
H       1.490936   -0.973863   -2.141491
