17

C       0.356082    1.406528   -0.131539
C       0.037317   -0.047627    0.145679
O       1.163757   -0.958089    0.178291
C       0.453233   -0.751631    1.388281
C       1.184625   -0.142655    2.546649
C       2.621159   -0.394989    2.741657
O       2.143837    0.880899    2.310409
C      -1.124602   -0.562046   -0.547385
C      -2.099050   -0.957556   -1.129470
H       1.271327    1.697802    0.380471
H       0.475189    1.555253   -1.208737
H      -0.468960    2.041587    0.205664
H      -0.170815   -1.594849    1.695396
H       0.560296    0.014864    3.427551
H       3.033570   -0.423915    3.748318
H       3.155729   -0.963572    1.984212
H      -2.956448   -1.315227   -1.644278
