17

O      -0.121673   -0.076600    0.342428
C      -0.065645    1.108069    0.091401
N       1.071535    1.813160   -0.167425
C       2.381577    1.215990   -0.173478
C       3.398193    1.543905   -1.313081
C       3.610296    2.941465   -0.654035
C       3.581218    1.926952    0.530213
C       4.494432    1.017890   -0.342085
H      -0.963355    1.757128    0.045926
H       0.971100    2.796241   -0.361142
H       2.248302    0.159866    0.059173
H       3.290836    1.319725   -2.375025
H       4.570399    3.425934   -0.850031
H       2.802729    3.675448   -0.726407
H       3.684913    2.144488    1.593905
H       4.486487   -0.052094   -0.118944
H       5.506509    1.387255   -0.519329
