21

C      -0.287324    1.526610   -0.135115
C       0.045380    0.040971   -0.104985
C       1.390950   -0.404759   -0.723078
O       1.842655   -0.959757    0.531186
C       0.614036   -0.589340    1.196972
C       0.870356    0.298392    2.405812
O      -0.394005    0.628024    2.958036
C       1.731703   -0.410069    3.446416
O       1.796651    0.474371    4.564901
H       0.575080    2.140340    0.144139
H      -0.593416    1.828987   -1.142308
H      -1.100151    1.757603    0.558192
H      -0.802573   -0.532851   -0.486893
H       1.334940   -1.167428   -1.509392
H       2.042451    0.410138   -1.065538
H       0.059251   -1.476523    1.533416
H       1.407623    1.207687    2.092471
H      -0.207201    0.958487    3.846071
H       1.255921   -1.362017    3.725926
H       2.725690   -0.619642    3.031468
H       2.162783   -0.003622    5.313752
