23

C      -0.004214    1.572209    0.076493
C      -0.025074    0.070831    0.058439
C       1.146759   -0.772156   -0.366082
C       0.592349   -0.951128    1.026929
C       1.416111   -0.761651    2.269281
C      -0.690551   -1.802105    0.971496
C      -0.587268   -3.269859    0.574439
O      -1.320688   -1.679804    2.243150
C      -1.293782   -0.786071   -0.063522
H       0.978557    1.952908    0.374471
H      -0.227952    1.985589   -0.914982
H      -0.745236    1.973273    0.777445
H       1.038122   -1.537470   -1.132289
H       2.103060   -0.257326   -0.401986
H       2.103660    0.083289    2.156687
H       0.776562   -0.572947    3.135375
H       2.023182   -1.649094    2.486882
H      -0.053784   -3.835850    1.344451
H      -1.587026   -3.709095    0.461274
H      -0.065778   -3.399515   -0.377576
H      -2.170382   -2.130693    2.193496
H      -2.180398   -0.306589    0.358809
H      -1.526900   -1.163988   -1.066142
