19

C      -0.059226    1.560055    0.102669
C       0.053036    0.052379   -0.022166
C       1.198090   -0.571961   -0.882305
C       1.122843   -1.766304    0.092839
C       0.614444   -0.785438    1.171011
O       0.076713   -2.675494   -0.299043
C      -1.138447   -2.139520   -0.588694
O      -2.044587   -2.851507   -0.920300
C      -1.254766   -0.618153   -0.463618
H       0.892056    2.000579    0.418883
H      -0.339937    2.016629   -0.853550
H      -0.821111    1.840646    0.839156
H       1.012619   -0.773456   -1.940796
H       2.136622   -0.023417   -0.767244
H       1.996783   -2.389753    0.276434
H       1.444267   -0.276657    1.668523
H      -0.083907   -1.174526    1.916879
H      -2.067805   -0.414850    0.243113
H      -1.590375   -0.240263   -1.436449
