15

C       0.057630    1.426029    0.119469
O      -0.039984    0.004266   -0.004723
C       0.566509   -0.551792   -1.113552
C       0.249027   -2.076163   -1.143534
N      -0.683282   -2.245387   -2.258750
C      -0.759324   -1.119942   -2.826064
O      -0.033868   -0.068690   -2.338073
C       2.010555   -0.229212   -1.179154
N       3.144376   -0.009936   -1.190165
H       1.103917    1.742894    0.201702
H      -0.411160    1.925438   -0.733531
H      -0.474097    1.682300    1.036064
H       1.143152   -2.684646   -1.301599
H      -0.209176   -2.360523   -0.193512
H      -1.353536   -0.881039   -3.699983
