16

C       0.010090   -1.221858   -0.003918
C      -0.032810   -0.021209    0.003084
C      -0.032419    1.434685    0.011157
C       1.404658    2.001912   -0.001596
N       1.426141    3.454640    0.006273
C       1.390386    4.305946   -1.063934
N       1.369135    5.553351   -0.672256
N       1.385935    5.545602    0.709482
C       1.416548    4.293889    1.086510
H       0.027386   -2.283830   -0.010136
H      -0.577547    1.820095   -0.858774
H      -0.558087    1.810403    0.897153
H       1.954675    1.640564    0.870657
H       1.935256    1.650256   -0.889698
H       1.392102    3.961713   -2.087052
H       1.443066    3.938183    2.105353
