25

C       0.182016    1.505251    0.003317
C      -0.054655   -0.017943    0.003571
C      -1.575590   -0.263210    0.055721
C       0.519150   -0.627698   -1.328652
C       1.598281   -1.693640   -1.123860
C       1.146612   -2.724018   -0.052973
C       1.672717   -1.704857    0.994409
C       2.656719   -1.203961   -0.097988
C       0.611026   -0.641536    1.285706
H       1.250492    1.742908   -0.033034
H      -0.294252    1.977711   -0.863487
H      -0.231951    1.968325    0.906418
H      -2.076672    0.184426   -0.810268
H      -1.807154   -1.333640    0.057987
H      -2.014414    0.174704    0.959636
H      -0.301376   -1.064909   -1.910625
H       0.933012    0.177687   -1.947670
H       1.953476   -2.074978   -2.085172
H       0.089872   -3.007564   -0.017343
H       1.758716   -3.629960   -0.079281
H       2.094369   -2.096212    1.924330
H       3.565738   -1.811039   -0.133144
H       2.933817   -0.144922   -0.102117
H       1.067626    0.157411    1.882622
H      -0.166787   -1.085172    1.919192
