20

C      -0.035423    1.503092    0.080570
C      -0.018820    0.010575    0.000690
C       0.038712   -0.757668   -1.095906
C       0.041886   -2.212876   -0.773852
C      -0.740685   -3.223002   -1.590543
C       0.762750   -3.235118   -1.624001
C       0.053094   -2.267857    0.733907
N       1.251396   -1.651059    1.351738
C      -0.012976   -0.864033    1.218768
H       0.847871    1.880986    0.611194
H      -0.055104    1.958263   -0.913459
H      -0.911612    1.864332    0.634691
H       0.113005   -0.388891   -2.113970
H      -1.248840   -4.015738   -1.049847
H      -1.276868   -2.864135   -2.462707
H       1.259488   -2.881311   -2.521129
H       1.287878   -4.032827   -1.110003
H      -0.438771   -3.087086    1.248940
H       1.313442   -1.991251    2.310977
H      -0.538390   -0.570134    2.122429
