17

O       0.061315    1.468480   -0.019654
C       0.024097    0.080341   -0.269350
C      -1.360301   -0.516904   -0.028541
C      -1.500801   -2.045445   -0.108463
O      -0.747197   -2.614439    0.972638
C      -2.069408   -2.139427    1.243408
C      -1.956273   -0.616070    1.439667
C      -1.177576   -0.181118    2.652308
O      -0.360740    0.708719    2.689932
H       0.008037    1.560258    0.942947
H       0.280970   -0.059866   -1.326726
H       0.769747   -0.466993    0.322946
H      -2.088633   -0.019859   -0.675619
H      -1.662316   -2.672443   -0.977138
H      -2.779130   -2.837703    1.670778
H      -2.943678   -0.140285    1.499123
H      -1.424987   -0.746287    3.578082
