18

C      -0.181998    1.571011    0.679497
C      -0.095974    0.155706    0.065189
C       0.857662   -0.662352    0.819747
N       1.613965   -1.300172    1.417054
C      -1.481391   -0.502078   -0.031369
C      -2.309307   -0.052771   -1.234362
O      -3.645681   -0.477131   -1.133915
C      -1.799944   -1.785426    0.604355
O      -2.230092   -0.535891    1.187711
H       0.809636    2.024596    0.737610
H      -0.820043    2.213226    0.067936
H      -0.605250    1.512477    1.683905
H       0.298296    0.234628   -0.956889
H      -2.239847    1.043131   -1.335052
H      -1.892116   -0.490427   -2.148689
H      -3.915691   -0.287341   -0.225040
H      -2.601345   -2.387163    0.184337
H      -1.037911   -2.312738    1.170954
