21

O      -0.062651    1.472601   -0.132136
C      -0.011998    0.106971    0.254981
C       0.262626   -0.113732    1.757108
C      -0.405873   -1.461155    2.056056
C      -1.709331   -1.396627    1.249183
O      -2.704898   -0.648853    1.956721
C      -3.027999    0.555018    1.263109
C      -2.586686    0.343348   -0.186252
C      -1.377574   -0.592386   -0.035633
H       0.779915    1.876280    0.097379
H       0.766147   -0.410923   -0.327351
H       1.329639   -0.089733    2.000514
H      -0.228495    0.684365    2.324692
H       0.211848   -2.289924    1.686868
H      -0.598049   -1.634015    3.117523
H      -2.120698   -2.392444    1.045176
H      -4.103706    0.731407    1.368749
H      -2.497889    1.409195    1.709994
H      -3.372727   -0.166033   -0.752588
H      -2.336760    1.275204   -0.693785
H      -1.278205   -1.243515   -0.906245
