23

C      -0.359154    1.465039   -0.166005
C      -0.168124   -0.047004   -0.301964
C       1.133758   -0.428005   -1.016205
O       2.289179    0.071038   -0.345176
C       1.244036   -1.931863   -1.182557
O       0.357634   -2.557996   -2.114131
C       1.772401   -2.621589   -2.368668
C       2.285774   -1.956915   -3.622566
C       1.947096   -2.772750   -4.876557
H       0.488722    1.918963    0.354237
H      -0.436306    1.940448   -1.149969
H      -1.271109    1.699713    0.390720
H      -0.172117   -0.518912    0.692447
H      -1.001708   -0.494455   -0.855439
H       1.149874    0.051094   -1.999850
H       2.267542   -0.258178    0.560741
H       1.323446   -2.461807   -0.226555
H       2.187497   -3.618832   -2.197843
H       1.866624   -0.950950   -3.713614
H       3.373183   -1.841135   -3.529716
H       2.328130   -2.284856   -5.778360
H       2.385046   -3.775752   -4.827845
H       0.863802   -2.885539   -4.980468
