25

C       0.207196    1.400292    0.448757
C      -0.064552   -0.101022    0.331188
C      -1.364703   -0.418258   -0.422970
C      -1.603289   -1.905192   -0.533214
O      -1.995857   -2.602630    0.659604
C      -2.905353   -2.598782   -0.458999
C      -4.201017   -1.844671   -0.243737
C      -3.038790   -3.955112   -1.139131
C      -3.763943   -4.999013   -0.280047
H       1.136984    1.595411    0.992063
H       0.294177    1.867486   -0.538837
H      -0.602873    1.908974    0.983337
H       0.777317   -0.589346   -0.177151
H      -0.122501   -0.551032    1.329109
H      -2.203943    0.069352    0.082511
H      -1.315689    0.003336   -1.436833
H      -0.819404   -2.425939   -1.091721
H      -4.041661   -0.917824    0.308075
H      -4.670148   -1.603944   -1.204202
H      -4.908835   -2.451846    0.328937
H      -3.561051   -3.824691   -2.095907
H      -2.034720   -4.323319   -1.375419
H      -3.756021   -5.976535   -0.771290
H      -3.268591   -5.101184    0.690046
H      -4.809618   -4.730838   -0.100487
