16

C       0.014433   -1.197500   -0.005674
C       0.039783    0.002735    0.001868
C       0.026765    1.457994    0.011560
O       1.357141    1.948930   -0.000692
C       1.461026    3.306468    0.006102
C       0.462646    4.260547    0.024224
N       1.092798    5.489538    0.023806
C       2.448761    5.322375    0.005989
C       2.716479    3.973491   -0.005438
H       0.000967   -2.259311   -0.012440
H      -0.522032    1.837019   -0.865429
H      -0.501454    1.825343    0.905987
H      -0.610239    4.182998    0.037092
H       0.618004    6.373727    0.034896
H       3.114805    6.169945    0.002802
H       3.685298    3.501320   -0.020289
