19

C       0.112493    1.387600    0.044724
N      -0.167379   -0.030091    0.038599
C      -0.074326   -0.767439   -1.133666
O       0.040849   -0.329252   -2.258311
N      -0.136020   -2.113555   -0.770822
C       0.024663   -2.265245    0.644192
C       1.248675   -1.659580    1.318697
C      -0.047109   -0.868550    1.203707
C      -0.854617   -0.482155    2.416280
H       1.107348    1.604000    0.459120
H       0.080052    1.728296   -0.991547
H      -0.633043    1.939092    0.627072
H       0.262547   -2.769572   -1.423929
H      -0.500604   -3.090975    1.111301
H       1.505890   -2.048571    2.298244
H       2.090345   -1.372503    0.697345
H      -0.487766    0.449805    2.860149
H      -1.908583   -0.344765    2.153836
H      -0.787956   -1.259237    3.182686
