19

C      -0.117847    1.566355   -0.043048
C       0.021844    0.078109    0.001242
C       0.021171   -0.761911   -1.048268
C       0.197099   -2.241673   -0.690825
C       0.601328   -2.071494    0.753806
C       0.712346   -2.613324    2.199199
C       1.303843   -1.161591    2.125173
O       2.000984   -1.547054    0.902487
C       0.060234   -0.728031    1.278064
H       0.769586    2.054946    0.378230
H      -0.252067    1.931456   -1.065198
H      -0.973308    1.904152    0.555997
H      -0.079168   -0.440648   -2.080679
H      -0.730878   -2.814772   -0.815057
H       0.976462   -2.734001   -1.281736
H      -0.214357   -2.778494    2.755523
H       1.458528   -3.391043    2.363997
H       1.870370   -0.625330    2.888453
H      -0.892877   -0.733546    1.820611
