18

C      -0.377002    1.457628   -0.838625
N      -0.225220    0.017915   -0.855310
C       0.886389   -0.607349   -0.388459
O       1.863146   -0.048353    0.083667
C       0.844799   -2.096650   -0.517264
C       1.696289   -3.124122    0.235423
C       1.631808   -4.046849   -1.033061
C       0.792831   -2.962821   -1.720289
O      -0.375308   -2.743485   -0.921775
H       0.551437    1.879560   -0.451259
H      -0.557425    1.850509   -1.845379
H      -1.205268    1.765341   -0.190340
H      -0.983558   -0.574566   -1.155801
H       2.698845   -2.745749    0.435981
H       1.250613   -3.508120    1.155086
H       2.608945   -4.190325   -1.498648
H       1.132016   -5.011642   -0.922766
H       0.728321   -2.695759   -2.769162
