19

O       0.278073    1.381725    0.084789
C       0.068982   -0.023789    0.054979
C      -1.401829   -0.439480    0.019169
C      -2.268069    0.079363    1.189740
C      -3.694975    0.087676    0.603667
C      -3.470599    0.284173   -0.890399
C      -2.530892    1.356026   -1.298400
N      -2.077551   -0.051992   -1.242537
H       0.104755    1.715950   -0.799918
H       0.591122   -0.480690   -0.797264
H       0.525140   -0.416785    0.970557
H      -1.413999   -1.538511    0.023454
H      -2.181256   -0.554782    2.075500
H      -1.945998    1.083183    1.478313
H      -4.189062   -0.876137    0.770983
H      -4.333855    0.860305    1.042584
H      -4.238549   -0.053258   -1.580767
H      -2.580600    1.762122   -2.304846
H      -2.190693    2.057783   -0.543262
