10

N      -0.234193    1.500658    0.108942
C      -0.039458    0.205960    0.026712
N       1.314993   -0.461655   -0.022504
N       1.535762   -1.485557   -0.821481
O       0.583953   -2.010641   -1.832194
N      -0.861040   -1.642941   -2.198890
N      -1.722416   -1.157751   -1.350780
C      -1.245284   -0.788146    0.098056
O      -1.818436   -1.226795    1.106976
H       0.743317    1.954778    0.057135
