18

C      -0.227257    1.345352   -0.029858
O       0.123432   -0.029269    0.109719
C       0.737088   -0.541096   -0.998724
C      -0.036768   -1.060390   -2.228129
C       0.196112   -0.660554   -3.667438
C       0.846399   -1.988680   -1.429661
N       2.272183   -1.783364   -1.714752
C       2.218270   -0.417159   -1.373866
O       3.042261    0.452465   -1.405459
H       0.657753    1.960818   -0.228069
H      -0.953905    1.488083   -0.841377
H      -0.678579    1.649888    0.916180
H      -1.086162   -1.176706   -1.956203
H       1.260383   -0.560460   -3.896884
H      -0.226374   -1.406417   -4.349630
H      -0.279220    0.300398   -3.887559
H       0.514417   -2.870806   -0.898337
H       2.732151   -2.116764   -2.554627
