15

N      -0.160175    1.448972    0.115362
C       0.316681    0.104775   -0.182791
C       0.934633   -0.483229    1.075042
N      -0.027573   -0.985342    2.070465
C       0.847684   -1.956123    1.397622
C       0.223886   -2.887202    0.486977
N      -0.246188   -3.646223   -0.246858
C       2.121420    0.184159    1.570281
N       3.073463    0.693352    1.983266
H      -0.401211    1.937172   -0.739643
H      -1.002219    1.397908    0.680194
H      -0.452771   -0.597056   -0.535706
H       1.088165    0.165847   -0.957306
H       0.300431   -0.822897    3.019814
H       1.681692   -2.375095    1.953298
