21

C      -0.028611    1.589504    0.027539
C      -0.005283    0.059979    0.014066
C       0.704819   -0.505475   -1.233245
C       0.737964   -1.963635   -1.265201
C       0.744936   -3.168465   -1.255144
C       0.778347   -4.625428   -1.287380
C       1.498153   -5.170292   -2.550470
C       1.532187   -6.626261   -2.584093
C       1.543249   -7.828236   -2.581852
H       0.986233    2.002835    0.020734
H      -0.553153    1.987030   -0.848607
H      -0.536147    1.969145    0.919338
H       0.499888   -0.318113    0.909820
H      -1.027207   -0.333810    0.047536
H       0.203991   -0.128068   -2.135340
H       1.729913   -0.112305   -1.273782
H       1.286099   -5.015299   -0.397283
H      -0.239838   -5.031189   -1.260051
H       0.991293   -4.785426   -3.442822
H       2.517936   -4.769657   -2.579636
H       1.561543   -8.889270   -2.594896
