19

C      -0.341732    1.565352    0.001809
C      -0.058831    0.055015   -0.013483
O      -1.296219   -0.664443    0.046580
C       0.718079   -0.372908   -1.244330
C       1.981345   -0.016926   -1.547536
C       2.921607    0.669801   -0.697556
C       2.921599    0.655988    0.661130
C       1.982040   -0.043661    1.501555
C       0.716811   -0.393701    1.201681
H       0.585716    2.141316    0.005955
H      -0.911744    1.850183   -0.891482
H      -0.924582    1.821020    0.891630
H      -1.882539   -0.288165   -0.617890
H       0.164116   -1.009764   -1.929929
H       2.358741   -0.306162   -2.526627
H       3.766407    1.139525   -1.195470
H       3.766920    1.116130    1.167210
H       2.359773   -0.342811    2.477260
H       0.151425   -1.022778    1.882994
