15

O       0.062050    1.324821    0.351482
C       0.004751   -0.039298   -0.021516
C      -1.430011   -0.453918   -0.016734
C      -2.596226    0.272428   -0.091852
N      -3.689386   -0.550409   -0.075640
C      -3.208576   -1.779726    0.006557
N      -1.832868   -1.763682    0.046889
C      -3.940001   -2.987314    0.051833
C      -4.534723   -4.033511    0.092317
H       0.936221    1.658544    0.130646
H       0.441619   -0.194394   -1.022802
H       0.579862   -0.675283    0.674725
H      -2.691418    1.344827   -0.146265
H      -1.243222   -2.576179    0.124205
H      -5.075009   -4.946956    0.127394
