19

C       0.426667    1.142110   -0.520388
C       0.037011   -0.092356    0.289565
O       0.239146    0.121620    1.694383
C      -1.370170   -0.569537    0.044816
C      -2.270038   -0.536338   -1.001793
C      -2.155567    0.077036   -2.365678
N      -3.421059   -1.215798   -0.652691
C      -3.226248   -1.652009    0.571068
N      -2.001968   -1.296180    1.035211
H       1.440076    1.448300   -0.248451
H       0.400148    0.940233   -1.593948
H      -0.258727    1.972930   -0.317651
H       0.744564   -0.900088    0.056555
H      -0.279019    0.897550    1.940114
H      -1.291742   -0.302265   -2.923361
H      -3.055915   -0.169772   -2.931946
H      -2.067823    1.168242   -2.330541
H      -3.931171   -2.216386    1.163177
H      -1.598757   -1.461394    1.943277
