14

C      -0.020930    1.535376    0.037837
C      -0.010644    0.050339   -0.020336
C      -0.033853   -0.806361   -1.063633
O      -0.011266   -2.129960   -0.655915
C       0.027394   -2.078636    0.690573
N       0.062696   -2.945942    1.659807
N       0.089939   -2.166298    2.810728
C       0.069569   -0.894308    2.481798
N       0.028940   -0.779939    1.112098
H       0.876207    1.919741    0.535809
H      -0.055612    1.950005   -0.971570
H      -0.891688    1.905245    0.590578
H      -0.066117   -0.639504   -2.126392
H       0.082516   -0.062256    3.165340
