19

C      -0.086102    1.562682   -0.125057
C      -0.059616    0.046620    0.077306
N      -1.377493   -0.553545    0.015430
C      -1.911528   -1.318173   -0.966897
C      -3.217365   -1.613533   -0.623011
C      -4.231324   -2.432190   -1.357280
C      -3.367198   -0.952617    0.617939
O      -4.496283   -0.957842    1.362012
N      -2.274330   -0.313505    1.008206
H       0.924738    1.973277   -0.039214
H      -0.481739    1.818455   -1.112529
H      -0.718918    2.031636    0.631960
H       0.548887   -0.439269   -0.691187
H       0.379011   -0.197170    1.050685
H      -1.332069   -1.602256   -1.832663
H      -4.563747   -3.292576   -0.765346
H      -5.126773   -1.847494   -1.596511
H      -3.821796   -2.813275   -2.297024
H      -4.314521   -0.436888    2.153937
