16

C      -0.059985    1.556047    0.094556
N       0.053858    0.115445    0.093801
C      -1.176620   -0.674304    0.353672
C      -0.402266   -1.541255    1.364074
O       0.392214   -2.588577    0.776483
C       1.579134   -1.751728    0.758530
C       0.764118   -0.533774    1.220106
H       0.932462    2.008464   -0.004643
H      -0.658424    1.877379   -0.764610
H      -0.534332    1.966249    1.007589
H      -1.968282   -0.088439    0.848358
H      -1.592902   -1.183881   -0.521353
H      -0.899190   -1.852945    2.284902
H       2.324206   -2.112715    1.479959
H       2.022016   -1.672127   -0.239304
H       1.151327    0.123467    2.001995
