12

N       0.353271    1.319308    0.413882
C       0.012512    0.021146    0.155832
N      -1.091862   -0.595774    0.427749
C      -0.845686   -1.910983    0.019418
C      -1.845329   -2.974896    0.146152
O      -1.665869   -4.120357   -0.203290
C       0.411165   -1.998453   -0.486478
O       0.981235   -0.756427   -0.404565
H       1.046210    1.716944   -0.202262
H      -0.440295    1.917769    0.585917
H      -2.801157   -2.637565    0.598389
H       1.006797   -2.786036   -0.911531
