18

N       0.033829    1.361774    0.157814
C      -0.031308   -0.030759    0.045495
C      -1.145796   -0.847211    0.021769
N      -0.622893   -2.127462   -0.059734
C      -1.114041   -3.490835   -0.013452
C       0.160921   -4.297314   -0.387070
C       1.364476   -3.373517   -0.040747
C       0.724734   -2.020148   -0.050940
N       1.131821   -0.768045    0.003170
H       0.943037    1.695665   -0.135520
H      -0.695835    1.842665   -0.350935
H      -2.202284   -0.643306    0.032294
H      -1.482087   -3.738204    0.990966
H      -1.934267   -3.650344   -0.720127
H       0.199416   -5.257356    0.131248
H       0.153762   -4.501633   -1.461220
H       1.778935   -3.603310    0.949033
H       2.183012   -3.466923   -0.759075
