17

C      -0.053302    1.557719    0.026723
C       0.035815    0.055197    0.027491
C       0.961969   -0.816873   -0.883258
N       0.735688   -1.938336    0.112212
C       0.669606   -0.833161    1.148581
C      -0.717805   -2.187440   -0.098926
C      -1.254232   -0.738841   -0.164507
O      -2.374377   -0.334275   -0.322520
H       0.927736    2.020596    0.171302
H      -0.468773    1.918411   -0.919742
H      -0.719092    1.904454    0.823599
H       0.654214   -1.033530   -1.910570
H       2.006456   -0.495790   -0.860769
H       1.677338   -0.514133    1.426521
H       0.085197   -1.065229    2.043923
H      -0.896273   -2.739099   -1.026324
H      -1.149246   -2.753187    0.731757
