19

O      -0.051675    1.392551   -0.044214
C       0.018996   -0.016421   -0.028125
C      -1.278368   -0.611610   -0.490240
C      -1.755775   -1.499310    0.384431
C      -0.884086   -1.679521    1.613275
C       0.298867   -0.725599    1.344611
C       1.626084   -1.266011    0.772176
C       1.414074   -2.075671   -0.474474
C       1.361889   -0.578017   -0.574274
H       0.819178    1.731788    0.191041
H      -1.743348   -0.335403   -1.429837
H      -2.676313   -2.059793    0.251506
H      -1.432762   -1.432519    2.530767
H      -0.555628   -2.721183    1.723469
H       0.461076   -0.000745    2.144846
H       2.554413   -1.327291    1.328199
H       2.312212   -2.530331   -0.881150
H       0.514218   -2.666289   -0.619446
H       2.032668   -0.017310   -1.216912
