19

C       0.012454    1.487121   -0.404106
C      -0.018127    0.071323    0.186441
C      -1.409893   -0.511468    0.236214
C      -2.457667    0.098995    1.157721
O      -3.442323   -0.923470    1.385969
C      -2.939712   -2.158036    1.041062
N      -3.437300   -3.263613    1.391271
C      -1.739761   -1.966273    0.185431
N      -1.938870   -1.095440   -0.995362
H       1.038219    1.861565   -0.464256
H      -0.409993    1.490865   -1.413501
H      -0.560536    2.194267    0.205667
H       0.605654   -0.592155   -0.420594
H       0.406262    0.074181    1.198360
H      -2.013822    0.393376    2.117347
H      -2.968438    0.967024    0.728041
H      -4.238976   -3.116883    2.007386
H      -1.024790   -2.772768    0.086139
H      -2.928437   -0.886803   -1.119481
