16

C      -0.423237    1.336097   -0.327807
O      -0.529801   -0.078882   -0.501567
C       0.449382   -0.658865   -1.213880
C       0.589283   -1.990982   -1.492809
C      -0.211438   -3.203496   -1.117636
N      -0.648739   -3.250466    0.278460
O       1.703535   -2.108147   -2.228435
N       2.247620   -0.817564   -2.398590
N       1.491837    0.004359   -1.792792
H       0.501799    1.598431    0.195258
H      -0.442300    1.851336   -1.293022
H      -1.287855    1.625928    0.269650
H      -1.103516   -3.260248   -1.753372
H       0.385236   -4.093194   -1.340690
H       0.161265   -3.217530    0.891057
H      -1.194543   -2.419945    0.490190
