17

C      -0.012119    1.558975   -0.031854
N       0.045076    0.096044    0.012451
C      -1.026979   -0.741086    0.667850
C      -0.009410   -1.909038    0.568953
C       0.757200   -0.667778    1.105191
C      -0.427236   -0.443411    2.106077
O      -0.512787    0.829946    2.684099
C      -0.665275   -1.455132    3.150824
N      -0.897150   -2.207094    3.998494
H       0.982162    1.917802   -0.318419
H      -0.697310    1.832819   -0.841620
H      -0.318716    2.068875    0.883241
H      -2.073857   -0.711896    0.362418
H      -0.135284   -2.764483    1.231119
H       0.251880   -2.177239   -0.451553
H       1.820489   -0.550224    1.316048
H      -1.322536    0.881580    3.204631
