16

C      -0.304758    1.403616    0.166949
C      -0.023474   -0.053843    0.047168
C       0.912980   -0.923159   -0.836991
C      -0.082764   -2.023395   -0.903178
N       0.941572   -2.013154    0.201119
C      -0.008993   -1.160283    1.034325
C      -1.087549   -1.220548   -0.052903
C      -2.523198   -1.066031    0.088897
O      -3.042364   -0.340826    0.916051
H       0.551932    1.935867    0.595337
H      -0.528296    1.847391   -0.808898
H      -1.171605    1.556172    0.816483
H       1.769373   -0.685068   -1.456329
H      -0.188463   -2.853943   -1.590971
H      -0.133168   -1.205468    2.108988
H      -3.138557   -1.658089   -0.624403
