20

C      -0.035180    1.523911    0.041496
C       0.032359   -0.004344   -0.059841
C       0.740953   -0.493419   -1.296587
C       2.220394   -0.211850   -1.723470
C       1.626501   -1.120714   -2.842087
C       0.990280   -1.980217   -1.707920
C       0.347574   -0.231054   -2.788765
C       2.302479   -1.598833   -4.021934
N       2.845697   -1.981056   -4.968843
H       0.966765    1.964763    0.065384
H      -0.568993    1.955127   -0.811691
H      -0.557021    1.832477    0.951808
H       0.541905   -0.412461    0.822785
H      -0.982781   -0.422151   -0.047081
H       2.468622    0.810135   -2.019053
H       3.005293   -0.658732   -1.108203
H       1.686743   -2.553660   -1.091173
H       0.113361   -2.569991   -1.986191
H      -0.575386   -0.695442   -3.144870
H       0.458967    0.789500   -3.162301
