21

C       0.086165    1.460261    0.065264
C      -0.013685   -0.073105    0.039354
C      -1.475108   -0.523635    0.064328
C       0.772727   -0.667132   -1.176833
N       2.047972   -1.041220   -0.552403
C       1.801393   -1.117294    0.806847
C       2.799778   -1.709485    1.764802
O       2.328225   -1.658624    3.083466
N       0.706257   -0.605660    1.222416
H       1.130694    1.780956    0.005962
H      -0.458737    1.901241   -0.776732
H      -0.336828    1.849976    0.995143
H      -2.006312   -0.176651   -0.828992
H      -1.543910   -1.614675    0.105213
H      -1.983700   -0.119360    0.944136
H       0.258532   -1.543245   -1.595694
H       0.919184    0.061924   -1.979050
H       2.605132   -1.764760   -0.983339
H       3.007795   -2.751973    1.470577
H       3.751197   -1.162271    1.661286
H       1.479030   -1.190736    3.029940
