14

N       0.125109    1.451715   -0.037421
C       0.081534    0.018454    0.052503
C       0.228885   -0.591218    1.495081
C      -1.129182   -1.270035    1.319541
O      -2.087965   -0.242078    1.049014
C      -1.295356   -0.722674   -0.045579
C      -1.951797   -1.236651   -1.204220
N      -2.424249   -1.633861   -2.182929
H       0.018977    1.764137   -0.997675
H      -0.638602    1.851625    0.501075
H       0.804221   -0.420418   -0.639769
H       1.064581   -1.289170    1.572045
H       0.276619    0.135058    2.308809
H      -1.505235   -2.198900    1.730046
