18

O       0.600844    0.603867   -0.927043
C      -0.074414   -0.244822   -0.035003
C       0.231981   -0.175332    1.486382
C      -1.270780   -0.424710    1.748069
C      -1.768338   -1.781831    2.293432
C      -2.416338   -0.934342    3.404593
O      -1.909305    0.285468    2.823190
C      -1.571440    0.007106    0.294790
H       0.488683    1.509350   -0.618448
H       0.080195   -1.255341   -0.423716
H       0.962883   -0.866450    1.913687
H       0.488391    0.847898    1.783794
H      -2.464094   -2.316191    1.643609
H      -0.983516   -2.466243    2.621326
H      -3.512176   -0.946348    3.437968
H      -2.028630   -1.096201    4.417320
H      -1.798048    1.079193    0.273041
H      -2.337834   -0.532562   -0.267219
