16

N      -0.680480    0.399314    1.600825
C      -0.804258   -0.093814    0.449411
O      -0.485102   -1.396767    0.244836
C      -0.921525   -1.983739   -0.979973
C      -2.308081   -2.601484   -0.862195
N      -3.037559   -2.685675   -1.893945
N      -2.589117   -3.056806    0.437465
C      -3.730474   -3.704637    0.842226
O      -4.655186   -4.013459    0.125200
H      -0.917278    1.389138    1.587847
H      -1.135996    0.419192   -0.462767
H      -0.933280   -1.263457   -1.802651
H      -0.191249   -2.764516   -1.212437
H      -3.909811   -3.172064   -1.682387
H      -1.906721   -2.817147    1.144808
H      -3.710173   -3.922820    1.926343
