17

C       0.025168    1.501545    0.066476
C       1.301583    0.737864   -0.005480
C       2.015095    0.312159    1.312462
C       1.558299   -1.159839    1.464421
N       1.093375   -1.110747    2.937541
C      -0.333147   -1.480757    2.477422
C       0.144103   -0.572873    1.332877
C       0.901792    0.310973    2.364233
N      -0.028570    0.027549    0.006304
H      -0.243399    1.990520    0.998854
H      -0.347929    2.000001   -0.823726
H       1.860380    0.694303   -0.935233
H       3.030940    0.669665    1.480460
H       1.944911   -2.075895    1.017974
H      -0.462667   -2.547751    2.274824
H      -1.114625   -1.105234    3.143913
H       0.515382    1.108776    2.996917
