17

C       0.442272    0.631894    0.714553
C      -0.172488    0.077221   -0.555259
O       0.315148    0.255259   -1.647108
C      -1.439546   -0.769563   -0.385040
C      -1.064882   -2.191140   -0.062061
C      -0.289128   -3.049968   -0.821278
N      -0.214817   -4.210624   -0.128909
N      -0.884710   -4.181128    1.037442
C      -1.399048   -2.955290    1.080315
H       1.416574    1.072694    0.500929
H      -0.218371    1.398528    1.137281
H       0.539546   -0.156827    1.467776
H      -2.063738   -0.367584    0.419604
H      -2.002186   -0.710297   -1.321368
H       0.200401   -2.913020   -1.772508
H       0.270218   -5.052323   -0.390202
H      -2.001357   -2.655218    1.926283
