23

C       0.023152    1.580249   -0.011063
C      -0.039561    0.049682    0.021441
C      -1.462462   -0.539139   -0.025456
C      -2.176680   -0.236336   -1.349392
C      -1.402603   -2.047005    0.264235
N      -2.728078   -2.650176    0.381837
C      -3.237148   -3.375644   -0.778189
C      -2.763951   -4.107614    0.426710
H       1.055531    1.930196    0.088453
H      -0.370623    1.988346   -0.946707
H      -0.555663    2.016180    0.811039
H       0.545557   -0.357587   -0.815172
H       0.455849   -0.302369    0.935821
H      -2.047084   -0.085897    0.787258
H      -3.195050   -0.632392   -1.345537
H      -2.243272    0.839870   -1.532101
H      -1.640991   -0.684446   -2.195931
H      -0.790102   -2.551021   -0.509005
H      -0.890267   -2.201247    1.222058
H      -4.299373   -3.267156   -0.979328
H      -2.608148   -3.422559   -1.665886
H      -1.819855   -4.644421    0.341730
H      -3.472393   -4.543438    1.125763
