18

C      -0.170405    1.582117   -0.073445
C      -0.048950    0.057669   -0.023008
C       0.824420   -0.467197   -1.177569
C       1.601243   -1.446799   -0.678461
C       2.918357   -1.205358    0.030138
C       2.348714   -0.430687    1.229419
C       0.781943   -0.532753    1.179295
C       1.122121   -1.945494    0.699254
N       2.548226   -1.926111    1.269501
H       0.815109    2.053420   -0.156414
H      -0.772732    1.906001   -0.927944
H      -0.646818    1.959530    0.837452
H      -1.059147   -0.373235    0.039911
H       1.138320    0.207934   -1.968999
H       3.944984   -1.094471   -0.301974
H       2.954061    0.228986    1.842204
H       0.336082   -0.407862    2.170950
H       0.500591   -2.829128    0.831300
