18

C      -0.007334    1.495624   -0.254082
N      -0.060741    0.051854    0.120190
H       0.715109   -0.454656   -0.310850
H       0.060222   -0.057504    1.130652
C      -1.372770   -0.676455   -0.242264
C      -1.411230   -2.093914    0.325856
C      -2.821387   -2.605624    0.186217
C      -3.099471   -3.617649   -0.734354
N      -3.272852   -4.464751   -1.520097
C      -3.787153   -1.918299    0.923376
N      -4.489161   -1.245626    1.575430
H       0.946638    1.925150    0.056393
H      -0.123261    1.575837   -1.335091
H      -0.831929    2.007085    0.242661
H      -2.170529   -0.072371    0.196983
H      -1.446332   -0.656858   -1.330832
H      -0.717274   -2.743328   -0.218427
H      -1.072316   -2.057005    1.379688
