19

O       0.015452    1.425933   -0.098638
C       0.011413    0.012349   -0.004942
C       0.639184   -0.543357    1.327435
C      -0.505940   -1.353229    1.979278
C      -1.580254   -0.362248    2.483834
C      -2.205513    0.219869    1.163969
C      -1.438829   -0.509556    0.034223
C      -1.202856   -1.870105    0.710713
O      -1.484191   -2.981220    0.360828
H       0.931241    1.721760   -0.109560
H       0.528845   -0.421742   -0.872000
H       1.509910   -1.172837    1.122542
H       0.959051    0.287205    1.964802
H      -0.197051   -2.116034    2.692066
H      -2.334629   -0.879067    3.083383
H      -1.139066    0.418523    3.109555
H      -3.273421   -0.003459    1.101909
H      -2.078507    1.299256    1.085069
H      -1.939581   -0.540013   -0.931292
