15

N      -1.049181    1.080680   -0.057255
C      -0.284215   -0.030278    0.023358
O       0.937229   -0.014201    0.055907
C      -1.016301   -1.388524    0.041093
O      -0.054196   -2.401368    0.060231
C      -1.946928   -1.556253    1.274766
C      -3.166022   -0.759760    1.221033
C      -4.165726   -0.094389    1.138192
H      -0.590771    1.975274    0.012050
H      -2.048523    1.030395    0.071443
H      -1.636112   -1.460852   -0.865643
H       0.796709   -1.925440    0.072375
H      -2.204303   -2.620000    1.320710
H      -1.378456   -1.332387    2.185088
H      -5.066309    0.467063    1.091190
