15

N       0.046734    1.335885    0.110353
C       0.058086    0.068832    0.133347
N       1.131567   -0.819922    0.281986
C       0.747806   -2.164382   -0.133679
C      -0.746090   -2.156203    0.212195
N      -1.095253   -0.744399    0.042323
C      -2.407750   -0.337714   -0.112302
O      -2.814479    0.787850   -0.216183
H       0.995262    1.702970    0.177720
H       2.029076   -0.468106   -0.015151
H       0.899719   -2.334351   -1.209776
H       1.295320   -2.930776    0.420597
H      -1.338210   -2.794134   -0.447063
H      -0.905908   -2.477109    1.249027
H      -3.073284   -1.226568   -0.142017
