18

C       0.047134    1.493459   -0.029730
N       1.267138    0.668989    0.027872
C      -0.051936    0.014210    0.012830
C      -0.443126   -0.718010    1.282507
O      -0.026604   -2.072856    1.225802
C      -0.714066   -2.829007    0.246719
C      -0.791801   -2.151711   -1.112920
O      -1.821473   -1.162217   -1.267506
C      -0.461000   -0.721909   -1.224272
H      -0.152259    2.074930    0.866726
H      -0.211029    1.995162   -0.959261
H       1.702650    0.618600   -0.891320
H       0.069088   -0.269542    2.136263
H      -1.531544   -0.650944    1.432838
H      -0.166650   -3.772347    0.157994
H      -1.740617   -3.058475    0.578033
H      -0.667025   -2.796961   -1.982021
H      -0.077069   -0.325479   -2.166777
