21

O       0.035986    1.296225    0.470399
C      -0.035241    0.003485   -0.122044
C      -1.448177   -0.508723    0.015201
C      -1.798549   -1.199492    1.303557
C      -1.631978   -2.016804    0.027056
C      -2.834739   -2.564375   -0.647425
C      -3.875089   -1.804278   -0.995979
C      -3.899321   -0.317837   -0.745157
C      -2.487441    0.298633   -0.749596
H       0.899492    1.669569    0.271059
H       0.238954    0.046679   -1.189029
H       0.661711   -0.694324    0.369543
H      -1.025585   -1.274746    2.061134
H      -2.803273   -1.106324    1.699528
H      -0.736450   -2.628458   -0.033408
H      -2.849844   -3.633943   -0.839332
H      -4.745994   -2.255525   -1.463038
H      -4.512638    0.184672   -1.501804
H      -4.395949   -0.109304    0.213104
H      -2.517888    1.320305   -0.359610
H      -2.145061    0.371504   -1.791103
