19

O      -0.604457    0.780398   -0.724270
C       0.105936    1.018311    0.218610
C       1.290990    1.967708    0.160569
C       1.422945    2.699713   -1.189341
C       2.607905    3.671507   -1.192033
C       2.497025    4.688408   -0.049168
C       2.385325    3.987324    1.320163
C       1.270133    2.955170    1.336867
O       0.424306    2.912847    2.200333
H      -0.057718    0.537733    1.203777
H       2.191178    1.346566    0.314326
H       1.511297    1.960322   -1.989875
H       0.491572    3.244937   -1.382892
H       3.547270    3.109760   -1.093212
H       2.657398    4.192563   -2.154005
H       3.359067    5.363208   -0.043984
H       1.609419    5.314971   -0.204085
H       3.326884    3.458764    1.528676
H       2.211354    4.693944    2.135091
