15

N      -0.093806    1.335631    0.021522
C       0.063334   -0.003819    0.207664
O       0.961129   -0.535305    0.813824
O      -0.984596   -0.664942   -0.373471
C      -0.965110   -2.070788   -0.269836
C      -2.034628   -2.716612    0.661312
N      -2.553163   -3.388427   -0.534409
C      -1.711045   -2.784951   -1.436346
O      -1.614340   -2.821895   -2.631154
H       0.701379    1.912880    0.233920
H      -0.743120    1.655978   -0.676838
H       0.051066   -2.424961   -0.094781
H      -1.648678   -3.388173    1.433315
H      -2.720458   -1.986341    1.100846
H      -3.300499   -4.053295   -0.663662
