18

N       0.806159   -1.420944   -0.571713
C       0.533359   -0.311020   -0.744221
C       0.229547    1.104614   -0.928458
C       0.822449    2.009165    0.160159
C       0.933035    1.518078    1.557147
N       2.139754    1.702931    0.724918
C       0.579933    3.465095   -0.133034
C       1.407077    4.522632    0.487190
N       1.554640    4.214543   -0.949195
H       0.611421    1.417416   -1.908205
H      -0.858847    1.232827   -0.963741
H       0.830581    2.223976    2.375629
H       0.617626    0.502098    1.777830
H       2.472826    0.797705    0.400015
H      -0.455145    3.699326   -0.377663
H       0.962320    5.488928    0.705954
H       2.203035    4.206463    1.153735
H       2.388283    3.635931   -1.050000
