19

C      -0.086289    1.273867    0.385424
O      -0.236302   -0.098776    0.079724
C       0.536425   -0.521170   -1.024664
C       2.005469   -0.668162   -0.607730
O       2.937656   -0.566809   -1.361079
C      -0.002152   -1.868308   -1.507922
C      -1.505922   -2.006282   -1.530230
C       0.836329   -2.678722   -2.401501
O       0.722994   -3.007714   -1.011019
H       0.949028    1.531323    0.653262
H      -0.390908    1.908141   -0.460510
H      -0.731882    1.483502    1.240750
H       0.474967    0.208065   -1.848678
H       2.129279   -0.876797    0.476466
H      -1.951648   -1.266010   -2.203415
H      -1.781757   -3.005316   -1.875789
H      -1.919363   -1.846184   -0.532858
H       0.349407   -3.375189   -3.082271
H       1.812206   -2.314821   -2.715485
