19

C       0.082569    1.558217    0.078587
C       0.081719    0.028163    0.054726
C       0.589960   -0.538605   -1.273462
O       1.937031   -0.121583   -1.513077
C       2.779831   -1.239150   -1.764945
C       1.902750   -2.441532   -1.596393
C       0.650888   -2.058487   -1.324630
C      -0.487198   -2.869992   -1.120778
C      -1.488174   -3.517292   -0.943706
H       1.089923    1.944302   -0.098060
H      -0.574274    1.965790   -0.698223
H      -0.266767    1.936772    1.043782
H       0.712320   -0.365860    0.860759
H      -0.931033   -0.357437    0.222769
H      -0.051316   -0.159476   -2.087498
H       3.202726   -1.177514   -2.781646
H       3.629533   -1.232986   -1.064445
H       2.252256   -3.460472   -1.696995
H      -2.361150   -4.101671   -0.788833
