16

O      -0.215346    1.483929   -0.497814
C      -0.029361    0.159566   -0.053733
C      -1.356055   -0.620092   -0.028648
C      -2.413617   -0.243029   -1.000420
N      -1.499274   -1.360493   -1.306626
C      -0.365514   -1.047438   -2.075587
O      -0.265570   -1.041305   -3.276207
C       0.763279   -0.636452   -1.122086
O       1.733761    0.129186   -1.783370
H       0.573176    1.688385   -1.023536
H       0.455360    0.134902    0.930048
H      -1.611279   -1.174032    0.868560
H      -3.441338   -0.543684   -0.823980
H      -2.274917    0.681882   -1.549262
H       1.199636   -1.536382   -0.662768
H       1.560624    0.001505   -2.730758
