17

O       0.338720   -0.037033    0.018440
C       0.120029    1.150647    0.024065
N      -1.117832    1.761443    0.000661
C      -0.996160    3.159444    0.077018
C       0.282810    3.539896    0.109146
C       1.154961    2.309175    0.050518
N       2.038075    2.158544    1.200084
C       3.123038    1.192466    1.041759
C       3.404612    2.653509    1.032805
H      -1.979706    1.243879    0.045950
H      -1.891766    3.764470    0.088849
H       0.649190    4.553135    0.163416
H       1.712590    2.263880   -0.905480
H       3.341563    0.592480    1.919455
H       3.191714    0.656724    0.098639
H       3.671160    3.105213    0.078311
H       3.834276    3.142476    1.901989
