14

C      -0.029923    1.699917    0.020887
C       0.039892    0.175388    0.086122
O       0.701612   -0.287672    1.273766
C       2.063074   -0.245359    1.343796
O       2.639169   -0.521549    2.346626
C      -1.379179   -0.454739    0.214054
O      -2.379366    0.124352   -0.088216
C       0.645068   -0.399090   -1.130636
N       1.083339   -0.858834   -2.096498
H       0.961281    2.128976   -0.140203
H      -0.690794    2.001885   -0.793485
H      -0.438796    2.073622    0.961987
H       2.540909    0.047819    0.393873
H      -1.356297   -1.483449    0.622563
