21

C      -0.082726    1.461227   -0.016562
C       0.040894   -0.052908    0.006401
C      -1.167442   -0.759152   -0.581959
C       1.381984   -0.656757   -0.175562
O       2.451761    0.188701   -0.449638
C       0.770142   -0.671459    1.250242
C       1.333374    0.256826    2.312627
C       0.369175   -2.012073    1.738165
O       0.070789   -2.966261    1.051897
H       0.836097    1.966222    0.278405
H      -0.326272    1.787701   -1.033391
H      -0.895160    1.793567    0.638789
H      -1.296309   -0.451046   -1.625822
H      -1.067685   -1.843495   -0.547327
H      -2.078654   -0.481669   -0.039886
H       1.424129   -1.640912   -0.641065
H       3.265871   -0.268405   -0.212857
H       2.129449    0.883590    1.904886
H       0.571417    0.915861    2.741080
H       1.762968   -0.325393    3.135087
H       0.388705   -2.110960    2.847865
