17

O      -1.002335    1.433167   -0.082440
C       0.092169    1.001061    0.197684
C       1.351733    1.753218   -0.012128
C       1.289194    3.290583    0.030314
C       1.580107    2.637207   -1.259227
C       3.042770    2.491368   -1.678401
C       3.767587    1.863429   -0.468704
C       2.672927    1.139141    0.328298
O       2.833740    0.189164    1.055199
H       0.230209   -0.008724    0.632739
H       0.282289    3.662607    0.184548
H       2.072366    3.810593    0.571850
H       0.803779    2.635954   -2.015806
H       3.104309    1.820866   -2.541108
H       3.474361    3.450455   -1.980832
H       4.559483    1.163114   -0.739483
H       4.223889    2.621875    0.178673
