16

C       0.172656    1.317984   -0.224949
O       0.088904   -0.022391    0.250932
C      -1.152059   -0.562699    0.128125
C      -1.594866   -1.959801    0.238245
C      -2.372593   -2.052716    1.575942
N      -3.166414   -0.769452    1.586060
C      -2.572083   -0.105668    0.688266
O      -3.133271    0.094165   -0.587685
C      -2.074817   -0.893932   -0.951637
H       1.203805    1.640377   -0.073619
H      -0.077629    1.377124   -1.291487
H      -0.502296    1.978299    0.335260
H      -0.990145   -2.781542   -0.139977
H      -3.128495   -2.842908    1.587084
H      -1.697424   -2.207886    2.430358
H      -1.996439   -1.121962   -2.007613
