20

C      -0.089814    1.253882    0.043570
O       0.198758   -0.131386    0.049421
C       0.711678   -0.625770   -1.186321
C       1.352070   -1.975961   -0.839553
O       2.326506   -1.825963    0.168688
C      -0.373851   -0.746208   -2.234702
C      -1.643525   -1.484087   -1.912940
N      -0.110017   -0.192730   -3.357301
O      -1.134305   -0.389514   -4.292366
H       0.808939    1.849023   -0.173372
H      -0.859924    1.508763   -0.696759
H      -0.456268    1.508561    1.040693
H       1.491685    0.046569   -1.568480
H       0.565585   -2.686534   -0.538886
H       1.850730   -2.377542   -1.726695
H       1.902913   -1.295598    0.855028
H      -2.503695   -0.959841   -2.336037
H      -1.633487   -2.486212   -2.357203
H      -1.763736   -1.579675   -0.832791
H      -0.809422    0.099859   -5.055788
