21

C       0.599296    0.068080    1.215321
C      -0.092161   -0.038489   -0.151079
C      -1.469628   -0.686237   -0.099923
C      -1.869321   -1.642956   -1.232675
C      -1.550961   -2.187853    0.117782
C      -2.632510    0.098041    0.415062
O      -3.687742   -0.427740    0.725385
C      -2.550823    1.621904    0.490348
O      -3.754865    2.163320    0.940755
H       1.586347    0.529648    1.116218
H       0.021071    0.671543    1.921904
H       0.733300   -0.921336    1.663768
H      -0.157430    0.952201   -0.616743
H       0.539157   -0.635058   -0.819544
H      -2.908854   -1.628575   -1.538396
H      -1.150858   -1.766365   -2.035661
H      -0.608116   -2.705412    0.256648
H      -2.376055   -2.542379    0.723375
H      -1.717658    1.911435    1.148946
H      -2.292138    1.996970   -0.514976
H      -4.336034    1.394664    1.068700
