22

C       0.060086    1.390252   -0.187321
C       0.283974   -0.124896   -0.275724
C       0.853892   -0.686022    1.017503
N      -0.019047   -0.652941    2.304882
C      -0.721999   -1.891713    1.731960
C       0.773504   -2.166247    1.433214
O       1.380312   -3.202620    0.739288
C       0.996419   -1.662284    2.893002
C       2.316943   -1.160445    3.445304
H       0.993661    1.915165    0.043535
H      -0.321639    1.788256   -1.132258
H      -0.657087    1.630519    0.602780
H      -0.646232   -0.618049   -0.571463
H       1.007514   -0.348611   -1.070151
H       1.817680   -0.204755    1.195916
H      -1.211653   -2.499322    2.498501
H      -1.402105   -1.681911    0.908604
H       1.155292   -4.035998    1.167652
H       0.500069   -2.273553    3.655929
H       2.134596   -0.477523    4.281631
H       2.891589   -2.009804    3.829710
H       2.944726   -0.643335    2.717604
