21

C       0.161008    1.571918    0.036931
C       0.023496    0.043941    0.011496
C       0.581023   -0.546731   -1.302854
C       0.750331   -2.041806   -1.261608
C       1.031311   -2.692849   -0.132693
C       1.170145   -1.977671    1.166773
C       1.242622   -2.825994    2.412861
O       2.081668   -0.840929    1.159124
C       0.676673   -0.590552    1.223181
H       1.217005    1.862072    0.026395
H      -0.323725    2.025991   -0.833458
H      -0.296324    1.998701    0.935684
H      -1.044604   -0.212350    0.075205
H      -0.069866   -0.257876   -2.135453
H       1.557428   -0.085906   -1.506041
H       0.672678   -2.586575   -2.198698
H       1.169739   -3.770383   -0.126518
H       2.103919   -3.501897    2.368947
H       1.345853   -2.199155    3.301647
H       0.340983   -3.439389    2.518073
H       0.332494   -0.209852    2.188245
