17

C       0.333247    1.410446    0.183421
C       0.028414   -0.061721   -0.109366
N       0.562906   -0.534140   -1.382468
C       1.986759   -0.778928   -1.512182
C       2.423095   -2.040462   -0.779722
O       3.480757   -2.165767   -0.223082
C      -0.243417   -0.704160   -2.473424
O       0.129890   -1.053526   -3.572832
H       1.409546    1.599095    0.231610
H      -0.092131    2.056183   -0.590397
H      -0.097357    1.696937    1.147684
H       0.421063   -0.694079    0.696602
H      -1.054768   -0.220126   -0.130387
H       2.180318   -0.928790   -2.581860
H       2.587437    0.065860   -1.162237
H       1.671088   -2.862337   -0.814027
H      -1.302777   -0.486428   -2.237298
