16

O       0.060329    1.395241   -0.073342
C       0.053153   -0.008013    0.059001
C      -1.369151   -0.562149    0.067159
O      -2.012503   -0.242681   -1.189443
C      -2.417426   -1.383584   -1.817617
N      -3.003848   -1.486171   -2.928415
N      -2.069168   -2.457199   -1.009335
C      -1.431262   -2.076649    0.154091
N      -0.954493   -2.745104    1.120139
H      -0.376341    1.604771   -0.906563
H       0.626348   -0.503015   -0.740407
H       0.524080   -0.254642    1.014042
H      -1.944699   -0.091224    0.870016
H      -3.159917   -0.569363   -3.340709
H      -2.272958   -3.402226   -1.289645
H      -1.079034   -3.750391    0.996678
