19

C       0.019845    1.483990   -0.086535
C      -0.051038   -0.012611   -0.001475
O       0.231077   -0.722934   -1.230525
C      -0.377641   -1.859809   -0.547994
C       0.723906   -2.189311    0.463544
C       0.733105   -0.773153    1.153302
C      -0.299097   -0.848264    2.255302
C      -1.510052   -0.971057    1.693198
C      -1.343267   -0.847631    0.211044
H       1.044949    1.805764   -0.299032
H      -0.629066    1.857749   -0.883470
H      -0.290974    1.931118    0.862149
H      -0.753455   -2.633996   -1.215344
H       0.497705   -2.998110    1.161063
H       1.651786   -2.404629   -0.070680
H       1.716520   -0.386585    1.419189
H      -0.062118   -0.917736    3.310366
H      -2.451365   -1.133697    2.202810
H      -2.199788   -0.559029   -0.397232
