22

C      -0.121332    1.376831   -0.296877
C       0.077239   -0.106658    0.011715
C       1.180171   -0.745898   -0.910614
C       2.211494   -0.514376    0.226966
C       1.025679   -0.349691    1.214846
O       1.054342    0.685972    2.166346
N      -1.245771   -0.702881    0.164634
C      -1.935054   -1.199133   -1.017621
C      -1.444140   -2.137022    0.031979
H       0.833705    1.901251   -0.381851
H      -0.659781    1.489003   -1.243940
H      -0.704068    1.850389    0.495562
H       1.021871   -1.808294   -1.110071
H       1.366041   -0.240264   -1.860567
H       2.928939   -1.313201    0.428773
H       2.752061    0.428211    0.110743
H       0.775544   -1.313424    1.681454
H       1.611612    0.410908    2.900432
H      -2.990507   -0.952987   -1.098333
H      -1.394735   -1.201961   -1.963349
H      -0.602192   -2.775268   -0.228622
H      -2.135060   -2.577924    0.745691
