19

C       0.213762    1.612980    0.304937
C       0.018421    0.117648    0.048546
C       0.634221   -0.728776    1.177147
O      -1.379061   -0.106888   -0.019274
C       0.674182   -0.288938   -1.273242
N       0.030871   -1.397040   -1.978140
C       0.059165   -0.065043   -2.619363
C      -1.199034    0.605299   -2.853020
N      -2.165870    1.174155   -3.131806
H       1.276670    1.869201    0.355725
H      -0.255934    2.199998   -0.488093
H      -0.252731    1.887842    1.254733
H       0.136444   -0.493159    2.121155
H       0.496515   -1.796203    0.974683
H       1.706568   -0.536128    1.291710
H      -1.504938   -0.967076   -0.443936
H       1.762688   -0.257300   -1.266562
H       0.697793   -2.019713   -2.424187
H       0.759002    0.078277   -3.439382
