13

C       0.052909    1.509061    0.028610
C      -0.003166    0.014248    0.010866
C      -0.105610   -0.708177   -1.121564
O      -0.158887   -2.045085   -1.182346
N      -0.100436   -2.793534    0.101833
N      -0.007945   -2.158121    1.132984
C       0.053049   -0.720788    1.253612
N       0.149909   -0.187209    2.407310
H       0.975618    1.853867    0.506919
H       0.001825    1.919419   -0.983632
H      -0.772186    1.918166    0.621032
H      -0.155500   -0.262685   -2.111964
H       0.171302   -0.913635    3.125447
