18

C       0.028159    1.533622   -0.126099
C       0.016019    0.009697    0.069881
O       0.611485   -0.359648    1.303618
C      -1.385425   -0.538704   -0.013512
C      -2.039004   -1.170548   -0.991331
C      -3.447922   -1.499060   -0.567840
N      -3.496413   -0.952986    0.770720
C      -2.304600   -0.405554    1.161783
O      -2.047424    0.085313    2.251359
H       1.051401    1.903282   -0.017098
H      -0.345963    1.811178   -1.117146
H      -0.598222    2.017304    0.629863
H       0.628979   -0.455426   -0.711195
H      -0.014845   -0.088794    1.993803
H      -1.658725   -1.430637   -1.971110
H      -4.192035   -1.035468   -1.231195
H      -3.633261   -2.582734   -0.578400
H      -4.270577   -1.057952    1.404224
