21

C      -0.083892    1.507662    0.053166
C       0.031041   -0.015353   -0.058910
C       0.923789   -0.412451   -1.240954
N       1.171573   -1.849869   -1.258320
C       0.232902   -2.669629   -2.020835
C       1.612995   -2.424138   -2.523310
N       0.592598   -0.616328    1.151007
C      -0.044292   -0.604538    2.349717
O      -1.047942    0.027736    2.613093
H       0.899811    1.956665    0.226007
H      -0.497997    1.924186   -0.871143
H      -0.739391    1.770461    0.883397
H      -0.975503   -0.428307   -0.220175
H       0.456495   -0.052560   -2.173293
H       1.894578    0.090177   -1.145503
H      -0.031683   -3.625079   -1.578173
H      -0.582156   -2.162086   -2.533982
H       1.720831   -1.753620   -3.374032
H       2.372135   -3.197626   -2.453300
H       1.262925   -1.355190    0.985193
H       0.475177   -1.241174    3.095125
