15

C      -0.279445    1.404529   -0.098086
N      -0.108815   -0.029346   -0.219449
C       0.809506   -0.563120   -1.068480
N       1.634863    0.159335   -1.721824
C       0.769799   -2.110854   -1.052932
O      -0.526614   -2.643652   -0.829112
C       1.375758   -2.667330   -2.274054
N       1.820821   -3.116379   -3.240993
H       0.676234    1.873387    0.150099
H      -0.635547    1.857136   -1.031970
H      -0.998338    1.608477    0.697975
H      -0.829498   -0.647198    0.113344
H       2.261221   -0.405745   -2.291212
H       1.365188   -2.446866   -0.195677
H      -1.056094   -2.490938   -1.621493
