22

C       0.354625    1.157747    0.220242
C      -0.072063   -0.306804    0.086076
C      -1.603285   -0.493403   -0.024289
C      -2.066328   -1.929044   -0.369448
N      -2.475781   -2.598344    0.883096
C      -1.425951   -3.385147    1.519683
C      -3.005504   -1.537581    1.735211
C      -2.308920   -0.232161    1.316468
O      -2.323761    0.801661    1.935427
H       1.441586    1.238462    0.319443
H       0.055410    1.732480   -0.663501
H      -0.110581    1.623786    1.091667
H       0.386814   -0.746922   -0.807936
H       0.310741   -0.883475    0.937229
H      -1.980432    0.233779   -0.753106
H      -2.933215   -1.887204   -1.041515
H      -1.292860   -2.515507   -0.871764
H      -0.556907   -2.802109    1.876060
H      -1.843727   -3.916120    2.380905
H      -1.059541   -4.136705    0.814175
H      -4.085495   -1.400829    1.568600
H      -2.866359   -1.740111    2.799841
