20

C       0.109466    1.461103    0.213132
C      -0.038061   -0.045181   -0.022978
C       0.653109   -0.524704   -1.292756
C       2.216530   -0.511465   -1.338095
C       2.143343   -1.887501   -2.000067
C       2.808860   -2.354015   -3.217089
O       3.141118   -2.886630   -1.925250
C       0.682702   -2.058887   -1.582710
H       1.163427    1.748497    0.293815
H      -0.327435    2.035481   -0.611439
H      -0.390864    1.770501    1.135897
H       0.371755   -0.595336    0.834935
H      -1.103217   -0.307706   -0.072687
H       0.251506    0.012860   -2.159099
H       2.713675    0.293504   -1.884463
H       2.650780   -0.580274   -0.334442
H       2.296391   -3.043892   -3.887206
H       3.582735   -1.743706   -3.682095
H       0.601409   -2.646110   -0.661515
H      -0.018050   -2.457547   -2.320278
