14

O      -0.026312    1.332874    0.078385
C       0.011512    0.001021   -0.031661
N       0.018089   -0.711105   -1.136144
C       0.059088   -1.986684   -0.643771
N       0.074940   -2.094018    0.668527
N       0.035352   -0.781041    1.064273
C       0.087719   -0.403846    2.467018
C       1.447030   -0.281172    2.989178
C       2.559133   -0.171049    3.427084
H      -0.054904    1.686972   -0.819594
H       0.072388   -2.857382   -1.282186
H      -0.445510    0.546024    2.574598
H      -0.468003   -1.165468    3.021349
H       3.545156   -0.080394    3.811475
