15

O      -0.010127   -0.088418    0.484916
C      -0.020338    1.096027    0.166690
C      -1.344242    1.779545    0.065037
C      -1.648633    2.887622   -0.611767
C      -0.675782    3.688107   -1.442852
N       0.526818    4.069059   -0.712208
C       1.427937    3.146767   -0.277204
C       1.230051    1.834481    0.002532
H      -2.129593    1.233846    0.580804
H      -2.679180    3.233095   -0.615761
H      -0.398739    3.110945   -2.341484
H      -1.152901    4.609468   -1.784406
H       0.901244    4.974569   -0.940266
H       2.427677    3.553683   -0.142140
H       2.105985    1.253725    0.268679
