19

C      -0.046389    1.515012    0.023803
C       0.076640    0.020208    0.028256
O      -0.770692   -0.710071    0.939124
C       0.657918   -0.823324    1.077870
C       1.296490   -1.985842    0.289429
C       0.194514   -2.931654   -0.240899
C      -0.433927   -2.050189   -1.364153
C       0.434527   -0.776684   -1.256597
O       1.727118   -1.314854   -0.913964
H       0.843453    1.970769   -0.422500
H      -0.917578    1.834795   -0.558773
H      -0.162440    1.892662    1.042809
H       1.074455   -0.455566    2.011281
H       2.151412   -2.456625    0.773556
H       0.650464   -3.837446   -0.645511
H      -0.527599   -3.207963    0.528173
H      -0.304428   -2.500595   -2.350447
H      -1.493602   -1.853084   -1.197999
H       0.517953   -0.169539   -2.157915
