22

C      -0.290685    1.491405   -0.193412
C      -0.114976   -0.025777   -0.105921
C       0.646044   -0.445872    1.170534
O      -0.021366    0.008108    2.321229
C       0.738742   -1.983673    1.260740
O      -0.028957   -2.550091    2.033922
N       1.620554   -2.665120    0.479831
C       1.624797   -4.120528    0.519036
C       2.581701   -2.067164   -0.427421
H       0.677631    1.998762   -0.274660
H      -0.887705    1.768864   -1.067370
H      -0.790985    1.864242    0.703175
H      -1.094927   -0.517838   -0.081455
H       0.404657   -0.399208   -0.996640
H       1.647301    0.006459    1.164151
H      -0.448509   -0.791553    2.676367
H       0.864939   -4.449807    1.224740
H       1.407724   -4.531574   -0.474662
H       2.606795   -4.491634    0.836677
H       3.580694   -2.475346   -0.231121
H       2.328929   -2.286457   -1.473348
H       2.628795   -0.987625   -0.304278
