18

O      -0.625787    0.041370   -0.345017
C      -0.176480    1.137819   -0.140719
C       1.208914    1.592096   -0.573262
N       1.188323    2.992410   -0.969317
C       2.450383    3.679770   -0.982765
C       3.637004    3.207865   -1.827773
C       2.887038    4.431555   -2.231834
C       2.797340    4.350579    0.307775
O       3.846377    4.904285    0.531110
H      -0.749739    1.923649    0.400586
H       1.854406    1.497065    0.311878
H       1.594917    0.889145   -1.326913
H       0.679540    3.123422   -1.833515
H       4.616961    3.338334   -1.383296
H       3.491521    2.300665   -2.402825
H       2.223653    4.376301   -3.089091
H       3.354918    5.395687   -2.069674
H       1.979650    4.304438    1.060446
