14

O       0.007734   -0.049932   -0.084807
C      -0.018922    1.155511    0.001637
C      -1.301797    1.973538    0.034660
O      -1.428397    2.800549    1.185660
C      -0.812664    4.022469    1.217057
O      -1.264986    4.880939    1.927712
C       0.425321    4.208109    0.442963
C       1.294561    3.272739    0.018660
N       1.153074    1.899539    0.006739
H      -1.372605    2.572003   -0.883555
H      -2.131745    1.268846    0.068521
H       0.736554    5.242697    0.376994
H       2.257429    3.597117   -0.364672
H       1.982043    1.340014   -0.140050
