19

C      -0.059893    1.486370    0.052581
C       1.310661    0.836678    0.027593
C       2.231531    0.363591    1.132740
O       2.325447   -1.078645    1.105162
C       1.071330   -1.787225    0.957876
C      -0.086282   -0.836047    1.279483
C       0.029763   -0.002149   -0.000256
C       0.098297   -1.066556   -1.061838
C       0.744048   -2.105915   -0.519571
H      -0.448024    1.914264    0.973095
H      -0.323677    2.051963   -0.835746
H       1.796849    0.906060   -0.941384
H       3.258614    0.709725    0.989342
H       1.907453    0.712982    2.122450
H       1.150853   -2.671643    1.594347
H      -1.039538   -1.369433    1.313523
H       0.038360   -0.279558    2.210371
H      -0.220886   -0.950842   -2.090536
H       1.047763   -3.015421   -1.021515
