21

C      -0.127946    1.514026    0.032584
C       0.041443   -0.009638    0.026162
C       0.730047   -0.494060   -1.251664
O      -0.088494   -0.135813   -2.354188
C       0.817668   -0.506714    1.240820
O       0.057511   -0.179196    2.418338
C       0.623048   -0.516835    3.596639
C      -0.269015   -0.119417    4.748520
O       1.694178   -1.060548    3.691342
H       0.849485    2.012388    0.018272
H      -0.684572    1.837788   -0.848934
H      -0.660755    1.842470    0.928007
H      -0.952102   -0.475993    0.050490
H       1.728943   -0.033023   -1.331421
H       0.874538   -1.585640   -1.205898
H       0.370394   -0.380850   -3.162537
H       0.971550   -1.590840    1.210448
H       1.805019   -0.036244    1.312167
H      -0.437991    0.961126    4.736203
H      -1.245756   -0.601629    4.651366
H       0.199451   -0.411615    5.687425
