20

C       0.254523    1.541567   -0.143159
O      -0.347354    0.338956   -0.564126
C       0.550433   -0.544899   -1.184489
C       1.580504   -1.322422   -0.315255
C       1.229254   -2.593575   -1.139628
C      -0.069160   -1.891627   -1.634088
C      -1.311980   -2.290597   -0.852907
O      -1.618733   -3.633185   -1.211347
H       1.039746    1.369330    0.608154
H       0.702639    2.087535   -0.988664
H      -0.527959    2.160957    0.301995
H       1.054167   -0.041185   -2.025220
H       2.617709   -0.979728   -0.319144
H       1.235178   -1.395793    0.719842
H       1.939439   -2.772504   -1.950420
H       1.085988   -3.525895   -0.591143
H      -0.288256   -1.981761   -2.701465
H      -1.131013   -2.199933    0.228969
H      -2.137360   -1.608003   -1.100352
H      -2.400563   -3.900547   -0.719879
