18

N       0.136213   -1.050892   -0.622523
C       0.047660    0.071369   -0.348214
C      -0.017824    1.448201   -0.001366
C      -1.105910    2.223831   -0.103592
C      -0.849513    3.623143    0.381602
C       0.673041    3.651833    0.587669
C       1.499811    4.731602   -0.065290
C       1.335609    4.701644    1.435319
C       1.168456    2.198101    0.578466
H      -2.069436    1.885415   -0.465444
H      -1.194741    4.380400   -0.332809
H      -1.401977    3.807627    1.315100
H       2.464576    4.456374   -0.479377
H       0.980888    5.506282   -0.621016
H       0.707079    5.456715    1.896795
H       2.189468    4.407986    2.037506
H       1.396135    1.825572    1.586267
H       2.075811    2.062463   -0.019852
