18

C      -0.016420    1.444634   -0.295103
C       0.045160    0.013657    0.234731
N      -1.292818   -0.583494    0.145368
C      -1.665542   -1.283565   -1.049709
C      -1.472509   -2.061790    0.237922
C      -0.275622   -2.974600    0.293432
O       0.707230   -2.863107   -0.398196
C      -2.602035   -2.505604    1.012453
C      -3.522125   -2.930587    1.658852
H       0.960552    1.926198   -0.192526
H      -0.288518    1.459389   -1.355545
H      -0.756631    2.032882    0.254009
H       0.802236   -0.564423   -0.307736
H       0.325796    0.017213    1.293831
H      -2.683488   -1.138978   -1.400756
H      -0.907415   -1.457922   -1.812157
H      -0.367027   -3.782189    1.048594
H      -4.343668   -3.285316    2.230914
