21

C       0.052053    1.596910   -0.077141
C       0.016146    0.059343   -0.003062
C       0.706440   -0.489352    1.228033
C       2.070168   -0.788498    1.166985
C       2.764840   -1.265065    2.274469
C       2.088282   -1.454877    3.474446
C       0.728868   -1.165904    3.547272
C       0.020843   -0.684055    2.442962
C      -1.457640   -0.399377    2.574012
H       1.084415    1.960033   -0.094817
H      -0.451436    1.957405   -0.980002
H      -0.440508    2.051087    0.788345
H      -1.024612   -0.278888   -0.040780
H       0.503610   -0.348042   -0.896055
H       2.595008   -0.646266    0.225939
H       3.823490   -1.490186    2.197221
H       2.611628   -1.828188    4.348574
H       0.198790   -1.319206    4.483051
H      -1.704087    0.637465    2.320867
H      -2.054931   -1.037291    1.911588
H      -1.797713   -0.579337    3.597099
