20

N       0.126974    0.786835    1.085976
C       0.080452   -0.146024    0.230127
O       1.215572   -0.614321   -0.371183
C       1.129847   -1.800335   -1.175514
C       0.296568   -2.870847   -0.475638
C      -1.129363   -2.336432   -0.321341
C      -1.886026   -2.443703    1.033071
C      -2.279287   -0.943447    0.914082
C      -1.217816   -0.779194   -0.204293
H       1.094561    1.085570    1.225684
H       0.701688   -1.554580   -2.157758
H       2.165398   -2.113632   -1.328865
H       0.331507   -3.805006   -1.045878
H       0.747874   -3.070590    0.503466
H      -1.755921   -2.681384   -1.149023
H      -2.696965   -3.173148    1.092035
H      -1.199306   -2.623133    1.866067
H      -3.294661   -0.804995    0.535104
H      -2.133196   -0.312034    1.789879
H      -1.552110   -0.265646   -1.112273
