10

N       0.105643   -1.126863   -0.004701
C       0.024581    0.028828    0.002660
C      -0.102664    1.434011    0.011885
C      -1.197716    2.253287    0.031468
C      -0.694486    3.586068    0.031416
C       0.663126    3.475030    0.012277
O       1.043464    2.178585    0.000239
H      -2.227153    1.933402    0.043999
H      -1.265334    4.500511    0.044031
H       1.465316    4.194582    0.005080
