14

N       0.028254    1.337680    0.009273
N       1.276807    1.857667   -0.000059
C       2.105064    0.829645   -0.013741
C       1.395664   -0.408009   -0.013471
C       0.034360   -0.027055    0.001872
C      -0.976889   -0.996999    0.006512
N      -0.677883   -2.284865   -0.003353
C       0.624693   -2.655797   -0.018067
C       1.692802   -1.778252   -0.023758
H      -0.758060    1.963915    0.020389
H       3.171392    0.999019   -0.023246
H      -2.030706   -0.726568    0.018250
H       0.800344   -3.727599   -0.025567
H       2.713305   -2.144163   -0.035698
