17

O       0.218214    0.052099   -0.026437
C       0.078130    1.240252    0.015243
C      -1.112744    2.181191    0.268846
C      -0.074493    3.268467    0.683153
C       1.070450    2.432979    0.050669
O       2.230541    2.323303    0.820710
C       3.227191    1.505114    0.209445
C       4.427187    1.502631    1.032842
C       5.429813    1.482680    1.693054
H      -1.648588    2.417528   -0.655971
H      -1.835649    1.846741    1.015500
H      -0.217652    4.271652    0.282709
H       0.055528    3.320108    1.765715
H       1.295109    2.764698   -0.979108
H       2.850339    0.481503    0.082070
H       3.465113    1.893313   -0.795547
H       6.314277    1.467664    2.280658
