20

O       0.030979    1.477862   -0.116529
C       0.008876    0.051307   -0.023587
C       0.792583   -0.478208    1.202131
N       0.191565   -0.370059    2.527571
C      -0.529644    0.862103    2.865117
C      -1.284120   -0.394523    2.591632
C      -2.098374   -0.628949    1.349908
C      -2.559393    0.471420    0.428969
C      -1.435922   -0.431703   -0.003716
H       0.949919    1.758931   -0.051846
H       0.495232   -0.373117   -0.915164
H       0.987883   -1.544570    1.026409
H       1.773559    0.015649    1.239673
H      -0.407672    1.195052    3.893377
H      -0.564498    1.654547    2.126219
H      -1.650771   -0.942600    3.456956
H      -2.757435   -1.487281    1.431482
H      -3.517784    0.348315   -0.063225
H      -2.309693    1.494371    0.679066
H      -1.669497   -1.166612   -0.765882
