20

C       0.016813    1.618609   -0.242548
C       0.091094    0.090881   -0.229426
C      -1.000464   -0.552165    0.626457
N      -0.887936   -2.004334    0.607164
C      -1.727264   -2.678209    1.273056
C      -1.803990   -4.196912    1.399939
N      -2.947847   -4.488702    2.279180
C      -3.435820   -3.354225    2.597181
N      -2.797858   -2.241966    2.063744
H       0.809028    2.049222   -0.862111
H      -0.942221    1.969140   -0.641473
H       0.124250    2.033081    0.766624
H       0.008102   -0.303968   -1.248549
H       1.065455   -0.240580    0.147617
H      -0.923171   -0.167289    1.659058
H      -1.988904   -0.231158    0.251879
H      -1.943279   -4.670798    0.422384
H      -0.881612   -4.607264    1.824682
H      -4.297462   -3.217447    3.243241
H      -3.058243   -1.283957    2.217627
