21

C      -0.083953    0.714209   -1.022090
C       0.578583   -0.626787   -0.670582
C       1.744067   -1.027476   -1.559105
C       2.792725   -1.461989   -0.855941
C       2.558925   -1.355936    0.614268
C       2.380576    0.053524    1.179094
C       2.951045    1.291209    0.527802
O       4.298970    1.512025    0.929543
C       1.170478   -0.742176    0.741419
H       0.626181    1.544337   -0.984330
H      -0.508154    0.682990   -2.031494
H      -0.899244    0.937289   -0.326615
H      -0.202504   -1.397736   -0.763933
H       1.696130   -0.956308   -2.640757
H       3.723794   -1.823381   -1.279608
H       2.916866   -2.137158    1.276574
H       2.488209    0.092450    2.261294
H       2.868993    1.237903   -0.564982
H       2.399643    2.178028    0.858550
H       4.797626    0.727091    0.679467
H       0.501143   -1.062989    1.531883
