17

C      -0.093957    1.455484    0.170881
C      -0.009678   -0.027926    0.033422
C       0.035944   -0.752398   -1.095827
C       0.056822   -2.201116   -0.810659
O       0.121972   -3.109071   -1.604863
C      -0.041750   -2.350140    0.719174
C       0.046132   -0.918562    1.275340
C       1.368265   -0.652402    1.990003
O       1.505075    0.107700    2.910897
H       0.685155    1.834394    0.841656
H      -0.009836    1.958032   -0.794925
H      -1.051516    1.738587    0.626345
H       0.031957   -0.361221   -2.105681
H      -0.995006   -2.822935    0.972545
H       0.747795   -3.015228    1.083005
H      -0.754098   -0.656000    1.974839
H       2.233016   -1.207593    1.558133
