23

C      -0.917644    0.778729   -2.485785
C       0.381818    0.021403   -2.770058
O       1.347615    0.908377   -3.341737
C       1.052802   -0.559769   -1.514565
C       0.730277   -2.038388   -1.156933
C       1.540811   -2.413562    0.106634
C      -0.772754   -2.261586   -0.871323
C       1.142703   -2.916937   -2.258819
C       1.481166   -3.648290   -3.151694
H      -1.673110    0.139711   -2.021248
H      -0.718783    1.623353   -1.817949
H      -1.347500    1.172974   -3.414560
H       0.179622   -0.802068   -3.472293
H       0.943998    1.326659   -4.109108
H       2.131642   -0.484303   -1.677135
H       0.816164    0.063887   -0.643478
H       1.237725   -1.782377    0.948795
H       1.370588   -3.458547    0.380047
H       2.612415   -2.274776   -0.060218
H      -1.382097   -2.096061   -1.762662
H      -0.947062   -3.288815   -0.538487
H      -1.114534   -1.582647   -0.082830
H       1.784691   -4.289633   -3.941707
