17

N       0.125999    1.119354    0.292311
C       0.018132   -0.080640   -0.046473
O       0.966447   -0.981494   -0.528394
C      -0.046490   -2.002392   -0.795947
C      -0.236544   -3.000003    0.362833
N      -1.187493   -2.066432    1.051754
C      -2.634435   -2.269005    0.690150
C      -2.607297   -1.030849   -0.248901
C      -1.095126   -1.087475   -0.113282
H       1.087207    1.453325    0.203661
H      -0.015846   -2.323270   -1.837105
H      -0.698847   -3.946706    0.060549
H       0.664652   -3.207807    0.945766
H      -2.820750   -3.214086    0.165044
H      -3.297691   -2.212968    1.556497
H      -3.025530   -1.135488   -1.251285
H      -3.013722   -0.130587    0.216884
