18

C       0.004887    1.571002   -0.023054
C      -0.037084    0.053449    0.162257
C      -1.450746   -0.526881   -0.034225
O      -1.979055   -0.194100   -1.311982
C      -1.462171   -2.016860    0.149898
C      -1.870533   -2.804606    1.171332
O      -1.648120   -4.111505    0.821608
C      -1.116052   -4.037907   -0.415340
N      -0.976760   -2.837184   -0.870418
H       1.026393    1.951346    0.070748
H      -0.378805    1.845133   -1.008704
H      -0.611037    2.078834    0.728020
H       0.635012   -0.438128   -0.552516
H       0.316848   -0.223002    1.163473
H      -2.126683   -0.069178    0.698682
H      -1.590996   -0.820934   -1.935901
H      -2.308697   -2.634080    2.139090
H      -0.866241   -4.971454   -0.894621
