19

C      -0.029464    1.522690   -0.027891
C      -0.020804   -0.015968    0.039827
C       0.709707   -0.523449    1.297022
C      -1.413284   -0.559629   -0.024650
N      -1.942192   -1.327277   -0.930062
C      -3.231435   -1.492569   -0.463828
C      -4.255737   -2.310371   -1.170591
N      -3.484342   -0.868882    0.656556
O      -2.266224   -0.239294    0.959094
H       0.996596    1.901897   -0.025417
H      -0.522625    1.877770   -0.937256
H      -0.553775    1.947819    0.832887
H       0.482496   -0.409051   -0.848551
H       0.212370   -0.171319    2.205463
H       0.739410   -1.616399    1.326031
H       1.739135   -0.153537    1.304965
H      -3.910033   -3.343177   -1.274958
H      -5.197000   -2.300206   -0.619234
H      -4.424045   -1.918627   -2.178255
