14

O       0.108749    1.375385   -0.217988
C       0.080418   -0.010451    0.076179
C      -1.319995   -0.515614    0.225714
C      -2.365948   -0.192236    1.307658
C      -2.915393   -1.630983    1.062186
O      -3.700338   -2.327258    1.629959
C      -1.889931   -1.865035   -0.048074
O      -2.076898   -0.764064   -0.963626
H      -0.330969    1.499083   -1.066468
H       0.594287   -0.606481   -0.691842
H       0.621831   -0.132190    1.019802
H      -1.971244   -0.102741    2.324132
H      -3.025911    0.647740    1.086449
H      -1.448874   -2.775245   -0.438050
