14

O       0.005060    0.057729    0.144025
C       0.010292    1.252690    0.106891
C      -1.049321    2.305491   -0.077588
N      -0.537340    3.599483    0.468580
C       0.792775    3.267305    1.110271
C       1.111016    2.323321   -0.055700
C      -0.016884    3.128849   -0.839901
C      -0.079955    3.759671   -2.099345
C      -0.098221    4.282018   -3.182778
H      -2.112090    2.222697   -0.257546
H       1.391614    4.179521    1.126143
H       0.723820    2.837318    2.115105
H       2.108957    2.059229   -0.392083
H      -0.123269    4.748900   -4.136519
