19

C      -0.081613    1.498144   -0.212291
C      -0.025358    0.047569   -0.128522
C       0.028962   -1.156575   -0.056816
C       0.032341   -2.569611    0.016965
C       1.100821   -3.384352    0.030646
C       0.731427   -4.839700    0.136728
C      -0.807552   -4.829671   -0.036690
C      -1.260339   -3.365003    0.190749
O      -1.854809   -3.127334    1.463494
H       0.685515    1.964494    0.416202
H       0.079639    1.843843   -1.239999
H      -1.056074    1.876943    0.115116
H       2.128394   -3.040963   -0.015053
H       1.229700   -5.447914   -0.627209
H       1.049990   -5.257376    1.102349
H      -1.064867   -5.136024   -1.055008
H      -1.331954   -5.498402    0.649743
H      -2.029985   -3.061757   -0.524733
H      -1.157091   -3.186000    2.125661
