17

C      -0.023201    1.426766   -0.044611
N      -0.008535   -0.011739    0.033690
C      -1.137647   -0.918872   -0.035571
C      -0.815576   -2.170339    0.831686
N      -1.615181   -3.011790   -0.130312
C      -0.791114   -2.097488   -0.999010
C       0.474771   -2.205118   -0.067383
C       1.111699   -0.813413   -0.012046
O       2.272782   -0.472201   -0.019490
H       1.016902    1.759527   -0.016897
H      -0.482438    1.784715   -0.975035
H      -0.559722    1.873370    0.800739
H      -2.127449   -0.469445   -0.027936
H      -0.882378   -2.280708    1.915553
H      -1.214410   -3.953068   -0.162422
H      -0.828362   -2.124172   -2.089691
H       1.122742   -3.079013   -0.093576
