19

C       0.117209    1.586624    0.021883
C       0.031663    0.059773    0.024986
C       0.682047   -0.615687   -1.212537
C       1.177459   -1.971226   -0.714284
C       0.767536   -3.264405   -1.278243
O       2.071470   -2.729603   -1.524094
C       1.451393   -1.804899    0.751688
O       2.179083   -0.601546    1.051132
C       0.754070   -0.593109    1.198485
H       1.163489    1.908114    0.023807
H      -0.367203    2.007724   -0.864819
H      -0.370979    2.014317    0.904040
H      -1.022445   -0.243764    0.088242
H      -0.004682   -0.702868   -2.057307
H       1.546894   -0.033057   -1.543122
H       0.738498   -4.154866   -0.650271
H       0.096569   -3.282075   -2.136439
H       1.665222   -2.660458    1.386122
H       0.390229   -0.465619    2.215735
