20

C      -0.030297    1.482884    0.197997
C       1.497293    1.614361   -0.176403
C       1.373518    0.212042   -0.796127
C       2.024010   -1.161377   -0.863944
C       0.747382   -1.780197   -1.557282
C       0.798675   -1.089750   -2.931505
C       0.414132    0.111098   -2.080508
N      -0.443336   -0.798910   -1.193057
C       0.096845   -0.069014   -0.009144
H      -0.300311    1.784454    1.211443
H      -0.702456    1.984534   -0.500030
H       1.794946    2.438522   -0.830318
H       2.128003    1.630169    0.717679
H       2.901677   -1.278847   -1.505568
H       2.249486   -1.568421    0.125126
H       0.549915   -2.842739   -1.426760
H       1.743188   -1.098058   -3.480255
H      -0.032222   -1.377334   -3.579273
H      -0.023681    1.022935   -2.485272
H       0.115664   -0.639845    0.924552
