16

C       0.066743    1.519864   -0.080538
C       0.035069    0.067350   -0.011428
C      -0.000300   -1.134611    0.049248
C      -0.015742   -2.583559    0.122825
O       0.100082   -3.106180    1.476956
C      -1.271917   -3.551528    1.481905
C      -1.402103   -3.279971   -0.032125
O      -2.432688   -2.448535   -0.484195
H       0.863052    1.872439   -0.745220
H      -0.882658    1.919157   -0.453937
H       0.243276    1.955520    0.909125
H       0.773711   -3.002710   -0.512970
H      -1.366491   -4.587688    1.825734
H      -1.918882   -2.897539    2.081227
H      -1.320274   -4.193126   -0.633914
H      -3.192539   -2.994634   -0.706043
