12

C       0.105175    1.486893    0.201739
O       1.474909    1.491752   -0.283583
C       1.409708    0.098660   -0.631298
C       1.801676   -0.836870    0.522637
O       0.440303   -0.832452    1.030943
C      -0.018964   -0.021364   -0.063163
H       0.023829    1.782669    1.252941
H      -0.535742    2.124100   -0.420903
H       1.754877   -0.110142   -1.645137
H       2.106399   -1.847155    0.221042
H       2.523891   -0.421471    1.233254
H      -0.910397   -0.418750   -0.551060
