16

N       0.131914    1.341867    0.004503
C      -0.016590   -0.008069   -0.037122
C      -1.134439   -0.777327   -0.071005
C      -0.781400   -2.194479   -0.058231
O      -1.525504   -3.150138   -0.109300
C       0.757593   -2.289239    0.070638
C       1.216425   -0.856047   -0.098109
C       2.410422   -0.432401   -0.847110
O       2.371210   -0.338365    0.581892
H       1.007866    1.663554    0.392556
H      -0.671053    1.902140    0.242153
H      -2.158364   -0.427591   -0.074138
H       1.014667   -2.666688    1.065628
H       1.170949   -2.980304   -0.667327
H       3.076449   -1.196472   -1.244486
H       2.413311    0.516318   -1.380988
