15

N      -0.697239    1.235037   -0.438583
C      -0.136900    0.006934   -0.153283
N      -0.403223   -0.666322    0.960144
N       0.315174   -1.810702    0.761978
C       0.949246   -1.767858   -0.420521
N       0.691276   -0.626583   -1.037603
C       1.807923   -2.865398   -0.904425
C       2.982800   -3.317082   -0.135179
O       1.761565   -4.057136   -0.113381
H      -0.136223    1.790672   -1.066887
H      -0.999133    1.744476    0.378773
H       0.261767   -2.580149    1.408254
H       1.805210   -3.010833   -1.982491
H       3.809276   -3.795330   -0.657714
H       3.237859   -2.805711    0.790852
