14

C      -0.138562    1.284126   -0.377036
C       1.278550    1.011725    0.024740
N       0.264505   -0.015331    0.148342
C      -0.145671   -0.514613    1.360035
C      -1.487610   -0.849278    1.610715
N      -1.832361   -1.399189    2.752496
N      -0.877666   -1.639139    3.667374
N       0.368752   -1.320160    3.438608
N       0.765155   -0.751995    2.301812
H      -0.730891    1.925215    0.271339
H      -0.417415    1.298465   -1.425859
H       2.029631    0.833944   -0.738049
H       1.644724    1.455607    0.945556
H      -2.273466   -0.667391    0.882193
