19

O       0.450548    0.703167   -0.784935
C       0.186924   -0.334118    0.116424
C      -0.041038   -0.028745    1.629291
C      -1.207086   -1.059633    1.612988
C      -1.240860   -0.937548    0.079122
O      -2.204460    0.068197   -0.387801
C      -2.798602   -0.906809   -1.258518
C      -1.821253   -1.387573   -2.282474
C      -1.805056   -1.973167   -0.879728
H      -0.393931    1.162063   -0.898377
H       0.952196   -1.104654   -0.023908
H       0.791134   -0.205479    2.313174
H      -0.406443    0.992345    1.764926
H      -0.888477   -2.059004    1.924953
H      -2.131394   -0.797339    2.130059
H      -3.877530   -0.900367   -1.353447
H      -2.229741   -2.048015   -3.041336
H      -1.018737   -0.735379   -2.611682
H      -1.941444   -3.024242   -0.665079
