9

O      -0.039660    0.056348    0.419944
C      -0.001820    1.185857    0.064151
O      -1.158711    1.838786   -0.310937
C      -1.082470    3.128778   -0.714372
N      -0.061292    3.876259   -0.808929
O       1.174682    3.305056   -0.449410
C       1.283320    2.013844   -0.018796
O       2.345433    1.565597    0.275046
H      -2.045058    3.544131   -0.985091
