14

O       0.056331    0.040932   -0.123574
C       0.010077    1.225733   -0.049490
O      -1.119930    1.968058   -0.181942
C      -0.835972    3.344642    0.082873
C       0.683587    3.389033    0.077001
C       1.516855    4.294756   -0.773502
C       1.524833    4.419739    0.743895
O       1.080084    2.031426    0.183381
H      -1.291123    3.958478   -0.697840
H      -1.264565    3.615281    1.054733
H       2.393376    3.862064   -1.241793
H       1.012030    5.058240   -1.356427
H       1.027106    5.268559    1.201816
H       2.406357    4.070601    1.269195
