18

C      -0.014523    1.514114    0.019420
C      -0.013070    0.003995    0.056826
C      -1.199367   -0.689617   -0.591680
C      -1.080621   -2.225980   -0.583413
C      -0.645534   -2.758035    0.757344
C       0.161919   -2.059411    1.557154
C       0.662821   -0.722871    1.151567
O       1.258743   -0.612050   -0.167194
H       0.865174    1.913898    0.529968
H       0.000447    1.872657   -1.016003
H      -0.912425    1.917297    0.499949
H      -2.101441   -0.384871   -0.044740
H      -1.321385   -0.331650   -1.620765
H      -2.037551   -2.668995   -0.879022
H      -0.351062   -2.532419   -1.343142
H      -0.991026   -3.744510    1.053696
H       0.477247   -2.446633    2.521144
H       1.189854   -0.144211    1.908526
