23

C       0.281793    1.628717   -0.044535
C      -0.011098    0.122552    0.006986
C       0.532704   -0.551010   -1.263860
O       0.047674   -1.855846   -1.534257
C       0.215697   -2.860378   -0.551237
C      -0.676910   -2.692449    0.714308
C       0.533222   -2.011616    1.421460
C       1.450761   -2.716540    0.379211
C       0.540793   -0.480051    1.317565
H       1.359618    1.818368   -0.115718
H      -0.198486    2.101304   -0.907447
H      -0.080616    2.130773    0.858150
H      -1.100535   -0.009599   -0.008025
H       0.227053    0.033438   -2.138121
H       1.634631   -0.536227   -1.242481
H       0.112951   -3.802471   -1.095709
H      -1.604229   -2.127766    0.595662
H      -0.909514   -3.664759    1.158536
H       0.704066   -2.300522    2.462549
H       1.771957   -3.701012    0.730301
H       2.327776   -2.182600    0.005229
H       1.573051   -0.129052    1.462386
H      -0.039285   -0.061757    2.150210
