21

C      -0.120376    1.531156    0.002511
C       0.033993    0.014641   -0.018805
C       1.099117   -0.590603   -0.953120
C       2.395605   -0.073995   -0.317802
O       2.088625   -0.094076    1.089952
C       0.744455   -0.616383    1.205260
C       0.227799   -0.356932    2.599453
C       0.807299   -2.086514    0.753354
O       1.014481   -1.993957   -0.670911
H       0.796467    2.026048    0.332059
H      -0.381216    1.914535   -0.989569
H      -0.921283    1.828156    0.687124
H      -0.928728   -0.469135   -0.210773
H       0.996293   -0.439075   -2.027688
H       3.234182   -0.743666   -0.536777
H       2.659231    0.945458   -0.627455
H       0.232290    0.714288    2.817433
H      -0.793907   -0.732710    2.708810
H       0.859548   -0.853568    3.342171
H       1.647407   -2.606675    1.227439
H      -0.119609   -2.638620    0.956781
