15

C      -0.023077   -1.303787   -0.067787
C      -0.009719   -0.103419   -0.002764
C      -0.042734    1.339271    0.051412
C       0.008682    2.091880    1.412769
C       1.485288    1.653362    1.460649
N       1.333151    2.087219   -0.016389
C       0.555313    3.284716    0.587926
C      -0.314963    4.028144   -0.312264
N      -1.008720    4.646259   -1.000019
H      -0.029209   -2.364395   -0.129005
H      -0.745800    1.733682   -0.686781
H      -0.745638    2.111213    2.204001
H       2.189239    2.272375    2.021125
H       1.697284    0.591289    1.572865
H       1.217585    3.975999    1.113421
