19

C       0.116269    1.530245   -0.555563
C      -0.194704    0.158848    0.051369
C      -1.622824   -0.339050   -0.256629
N      -1.782137   -0.629662   -1.684181
C      -3.161203   -0.919044   -2.098786
C      -4.111482    0.181539   -1.895902
C      -4.848406    1.115358   -1.717965
C      -1.899779   -1.563893    0.515485
N      -2.121035   -2.512772    1.136531
H       1.103047    1.871447   -0.230295
H       0.132751    1.510437   -1.650334
H      -0.617114    2.280960   -0.241947
H       0.516163   -0.592128   -0.307923
H      -0.087367    0.208683    1.139393
H      -2.341262    0.422330    0.096789
H      -1.447513    0.173046   -2.206210
H      -3.138270   -1.195568   -3.158574
H      -3.502100   -1.808196   -1.555686
H      -5.516778    1.926851   -1.566315
