12

O      -0.040242    0.127530   -0.605596
C       0.015660    1.291204   -0.252965
C       1.263371    1.925645    0.120108
C       2.286812    2.476060    0.433811
C      -1.202864    2.154004   -0.187167
C      -2.070002    2.149616   -1.413866
N      -2.502514    1.471651   -0.202027
H       3.201108    2.945021    0.706974
H      -1.134940    3.052351    0.417244
H      -2.612693    3.055815   -1.665930
H      -1.726242    1.552326   -2.253667
H      -2.309844    0.473609   -0.299625
