17

O      -0.232418    1.484948    0.407249
C      -0.003361    0.124130    0.038891
C       0.928784   -0.556377    1.014067
C       0.781387   -1.807327    1.458570
C      -0.352433   -2.669252    1.041402
O      -0.326423   -3.874851    1.199185
C      -1.516909   -1.975563    0.419665
C      -2.148255   -0.811174    1.173248
C      -1.356399   -0.544637   -0.065592
H       0.595711    1.966726    0.309212
H       0.476221    0.088349   -0.954767
H       1.789199    0.035101    1.324501
H       1.509917   -2.273278    2.114630
H      -2.182878   -2.638122   -0.120302
H      -3.226850   -0.723317    1.120872
H      -1.713812   -0.534734    2.126677
H      -1.915905   -0.272921   -0.954015
