16

O       0.039945   -0.004760   -0.375064
C       0.015460    1.176863   -0.087069
N      -1.142886    1.853517    0.186397
C      -1.268649    3.308500    0.151592
C      -0.130961    3.977685    0.928996
C       1.224070    3.399210    0.534898
N       1.710041    2.314290    1.398376
C       1.272514    2.002934    0.018371
H      -1.976416    1.300525    0.046085
H      -1.275984    3.674704   -0.886759
H      -2.234047    3.575786    0.591074
H      -0.157408    5.055567    0.741449
H      -0.276117    3.819178    2.001483
H       1.958410    4.096503    0.139789
H       2.726558    2.309924    1.431254
H       2.030235    1.715487   -0.703573
