21

C      -0.207031    1.588706    0.048084
C       0.010459    0.071164   -0.020178
C       0.832755   -0.409088   -1.199003
C       1.819690   -1.242594   -0.847411
C       2.797872   -1.930583   -1.746404
C       1.862680   -1.401315    0.641143
C       2.192563   -0.127152    1.416649
C       0.759271   -0.527901    1.179049
O      -0.000884   -0.971916    2.264265
H       0.745103    2.126657    0.092193
H      -0.754889    1.948723   -0.828836
H      -0.792211    1.859361    0.934490
H      -0.980294   -0.408219   -0.044333
H       0.620782   -0.096143   -2.216643
H       2.619529   -1.686646   -2.797200
H       3.829830   -1.652205   -1.497861
H       2.735446   -3.020731   -1.635842
H       2.105174   -2.355892    1.095625
H       2.547722   -0.263477    2.433149
H       2.630051    0.706322    0.876363
H      -0.188079   -0.212343    2.826466
