19

O       0.027233    1.503057   -0.089478
C       0.102837    0.097128    0.093690
C      -1.269645   -0.560153    0.043410
C      -2.040431   -0.568422   -1.298378
C      -1.371296   -1.458034   -2.310662
C      -2.198808   -2.092354   -1.224309
C      -1.404424   -2.099517    0.064760
C      -0.568195   -3.146816    0.657654
O      -1.840848   -2.784230    1.221370
H      -0.343407    1.658208   -0.964612
H       0.779018   -0.363865   -0.643344
H       0.553636   -0.052607    1.080874
H      -1.898715   -0.147113    0.838145
H      -2.789193    0.159691   -1.584108
H      -1.824397   -1.461553   -3.296864
H      -0.291759   -1.584983   -2.322884
H      -3.068696   -2.705361   -1.423143
H      -0.526475   -4.131880    0.194412
H       0.297056   -2.882590    1.264383
