17

O      -0.515186    0.005605    0.234612
C       0.263244    0.668221   -0.394243
C       0.884126    1.967376    0.127049
C       1.016717    2.975353   -0.913177
C       1.108463    3.774438   -1.810277
C       1.218233    4.754738   -2.876458
C       0.732872    6.201890   -2.581575
C       2.177455    6.605006   -2.931860
O       2.573169    5.226077   -3.101349
H       0.605547    0.375010   -1.410148
H       0.288437    2.315820    0.977076
H       1.878956    1.705895    0.519908
H       0.801440    4.337717   -3.803449
H      -0.050168    6.573059   -3.243240
H       0.446191    6.368247   -1.543481
H       2.292353    7.177210   -3.860551
H       2.748783    7.097602   -2.137145
