19

C       0.017618    1.544843    0.223836
C      -0.012113    0.015659    0.038473
C       0.675794   -0.470905   -1.201128
C       0.107458   -0.798977   -2.398017
N      -1.218224   -0.806394   -2.828319
O       1.025061   -1.251403   -3.279972
C       2.250964   -1.211847   -2.637205
C       2.085903   -0.739975   -1.373066
N       3.039368   -0.627927   -0.348233
H       1.044910    1.923565    0.267531
H      -0.476071    2.053904   -0.610771
H      -0.487458    1.841758    1.149145
H       0.450256   -0.458780    0.913528
H      -1.054869   -0.324006    0.024769
H      -1.689193    0.078211   -2.687560
H      -1.284605   -1.079003   -3.800735
H       3.090509   -1.578524   -3.201038
H       3.989369   -0.696451   -0.690234
H       2.942242    0.229727    0.181144
