20

C       0.549906   -0.548753   -1.500863
N      -0.157514   -1.797549   -1.218761
C      -1.470420   -1.604075   -0.683869
C      -2.225456   -2.776077   -0.117557
C      -1.694573   -4.190165   -0.165911
C      -1.605923   -1.741657    0.842525
N      -0.406737   -1.997488    1.591075
C      -2.534706   -0.844799    1.491695
N      -3.305120   -0.144183    1.996426
H       1.524375   -0.774776   -1.941788
H       0.003242    0.121540   -2.184011
H       0.716699   -0.009399   -0.563656
H      -0.195912   -2.381881   -2.046345
H      -2.072618   -0.809192   -1.129240
H      -3.303989   -2.697498   -0.220161
H      -0.612868   -4.224876   -0.025176
H      -2.161644   -4.804095    0.611235
H      -1.922128   -4.655778   -1.131094
H      -0.525783   -2.772809    2.234390
H       0.335168   -2.228661    0.935995
