17

C      -0.014534    1.550664    0.022597
O       1.318229    2.083535    0.026081
C       2.299040    1.062584    0.007160
C       2.073393    0.138283    1.216780
O       0.766280   -0.447690    1.132552
C       0.045128    0.023830   -0.016703
C       0.814241   -0.431872   -1.255809
O       1.176625    0.587634   -2.197614
C       2.146534    0.178947   -1.239580
H      -0.525519    1.867846    0.940065
H      -0.552016    1.945727   -0.845810
H       3.271165    1.557589    0.061251
H       2.824805   -0.662597    1.250509
H       2.143765    0.721762    2.142631
H      -0.952741   -0.413016    0.058016
H       0.624502   -1.416489   -1.673589
H       3.024319   -0.328540   -1.633227
