16

O       0.017319   -0.056854    0.105241
C      -0.012773    1.158035    0.058944
C      -1.279778    1.920392    0.022636
C      -1.273976    3.258107    0.099512
N      -0.072147    4.020948    0.209755
C       0.601264    3.843938    1.561344
C       1.733723    3.089970    0.887955
C       1.120214    3.421754   -0.446558
C       1.239176    1.979363   -0.055826
H      -2.197330    1.347714   -0.053965
H      -2.195253    3.836298    0.136867
H       0.911810    4.815945    1.954867
H      -0.000483    3.316761    2.307567
H       2.774194    3.102295    1.184277
H       1.527417    3.866093   -1.347130
H       2.067489    1.426355   -0.488378
