14

N       0.009487    1.366839    0.166596
C       0.031206   -0.011973    0.058170
N      -1.159895   -0.621565    0.092855
C      -1.160861   -1.957754    0.046906
C      -0.028650   -2.749737   -0.042055
C       1.208033   -2.096785   -0.083639
O       2.325607   -2.859361   -0.172224
C       1.246588   -0.709628   -0.031615
H       0.776131    1.869793   -0.251723
H      -0.898732    1.764686   -0.022464
H      -2.141847   -2.426790    0.079396
H      -0.081719   -3.829730   -0.081855
H       3.100442   -2.286845   -0.184815
H       2.192650   -0.175473   -0.049357
