19

C      -0.042689    1.508957    0.050989
C      -0.033095    0.000819    0.086130
C      -1.256194   -0.717592   -0.488288
C      -1.453231   -2.081596    0.189995
C      -0.167240   -2.936270    0.206730
C       0.102005   -2.102035    1.471518
O      -1.336398   -1.897665    1.633697
C       0.712705   -0.747562    1.112656
O       1.239274   -0.603927   -0.216342
H       0.892160    1.907217    0.453197
H      -0.153648    1.871255   -0.977425
H      -0.876726    1.906059    0.638700
H      -2.143570   -0.103875   -0.298475
H      -1.159615   -0.827535   -1.575497
H      -2.400067   -2.551183   -0.088950
H      -0.380812   -3.976854    0.453928
H       0.532514   -2.855428   -0.622660
H       0.552597   -2.566469    2.351154
H       1.270321   -0.216811    1.882544
