14

C      -0.019100    1.444257    0.020288
C       0.028096   -0.044806   -0.026068
N       0.006067   -0.780619   -1.131361
C       0.033459   -2.072142   -0.719248
O       0.025019   -3.097863   -1.577694
C       0.075353   -2.161172    0.661994
N       0.071751   -0.824854    1.076322
C       0.123792   -3.249100    1.545159
N       0.163241   -4.135269    2.293659
H       0.610867    1.841876    0.821520
H       0.328534    1.843633   -0.933347
H      -1.040886    1.805396    0.185433
H      -0.005122   -2.719466   -2.465874
H       0.096550   -0.517239    2.034680
