18

C      -0.010914    1.630500    0.015670
C       0.025256    0.118423   -0.058427
C       0.700419   -0.634577   -1.228466
C       2.199716   -0.265110   -1.163242
C       2.343887   -0.227851    0.385438
N       0.983498   -0.608384    0.870315
C       1.060541   -1.739254   -0.178695
C       2.586002   -1.493383   -0.379415
O       3.670062   -2.313713   -0.532450
H       0.972704    2.063575   -0.189600
H      -0.718559    2.035628   -0.715580
H      -0.328065    1.959229    1.010974
H      -0.969514   -0.302223    0.131206
H       0.233313   -0.814626   -2.196395
H       2.801424    0.348239   -1.819034
H       3.011605    0.440427    0.913013
H       0.516463   -2.663822    0.005452
H       3.901450   -2.677621    0.330260
