19

O      -0.029330    1.391145    0.121541
C       0.078616    0.005071    0.080231
C       0.854029   -0.791374   -1.032042
C       0.755655   -1.935359    0.025903
C       0.907718   -0.830660    1.104756
C      -0.765824   -2.174494    0.011830
O      -1.390096   -2.437354    1.289913
C      -1.989759   -1.117985    1.319146
C      -1.278352   -0.711801    0.016739
H       0.855413    1.764509    0.188687
H       0.366575   -0.929057   -2.002339
H       1.878855   -0.436614   -1.168803
H       1.415361   -2.800789   -0.000950
H       1.938020   -0.470599    1.172201
H       0.504824   -1.021385    2.099812
H      -1.100961   -2.875358   -0.759180
H      -3.081688   -1.176795    1.236460
H      -1.728000   -0.559168    2.225386
H      -1.903119   -0.345784   -0.798113
