18

C      -0.353787    1.226459   -0.930184
C      -0.062386    0.032504   -0.044962
C       1.115170   -0.826278   -0.376787
N       1.146112    0.044726    0.807433
C      -1.245196   -0.593912    0.604019
N      -2.465055   -0.455033    0.084138
N      -3.264502   -1.157572    0.910503
C      -2.592711   -1.732413    1.937866
C      -1.269863   -1.388653    1.776074
H       0.564210    1.589317   -1.404084
H      -1.069369    0.961756   -1.712823
H      -0.792821    2.043857   -0.348786
H       1.084012   -1.890269   -0.159703
H       1.709460   -0.555888   -1.246493
H       1.691069    0.880505    0.609642
H      -4.251126   -1.191117    0.720358
H      -3.098855   -2.320708    2.687061
H      -0.435521   -1.641477    2.407569
