25

C       0.027546    1.410419    0.032904
O       0.029069    0.004973    0.012563
C      -1.270578   -0.546243    0.014417
C      -1.159809   -2.064467   -0.013492
C      -2.525294   -2.757293   -0.006294
C      -2.425377   -4.285322   -0.039205
C      -3.786570   -4.988390    0.043373
C      -3.664561   -6.508680   -0.064784
O      -4.500069   -4.613680    1.222127
H       1.069306    1.741181    0.030323
H      -0.480840    1.833642   -0.848772
H      -0.468319    1.807942    0.933433
H      -1.825053   -0.218099    0.911608
H      -1.840305   -0.186047   -0.860775
H      -0.589005   -2.355552   -0.904054
H      -0.568184   -2.385439    0.852908
H      -3.094467   -2.463072    0.882935
H      -3.114573   -2.418274   -0.869824
H      -1.913699   -4.607714   -0.955716
H      -1.799202   -4.634247    0.796467
H      -4.419479   -4.623734   -0.776252
H      -3.029857   -6.905039    0.738264
H      -4.649589   -6.976105    0.016939
H      -3.215536   -6.805236   -1.018283
H      -4.011920   -4.961314    1.977243
