19

C       0.177748    1.404658    0.103587
C       0.326567   -0.092604   -0.095129
O       1.235385   -0.714292    0.409456
C      -0.739136   -0.764035   -0.952773
C      -0.709375   -2.300131   -0.961977
O      -1.937660   -2.812887   -1.454442
C       0.504728   -2.850923   -1.737601
C       0.560367   -4.306239   -1.767418
C       0.612132   -5.506522   -1.787423
H       1.042354    1.795274    0.641290
H       0.071540    1.917327   -0.858639
H      -0.732862    1.614742    0.676551
H      -1.727054   -0.440341   -0.603112
H      -0.649485   -0.368207   -1.976243
H      -0.644475   -2.654727    0.070996
H      -1.947046   -2.709846   -2.412353
H       0.474902   -2.460333   -2.766758
H       1.411217   -2.448113   -1.274150
H       0.656326   -6.567083   -1.801865
