20

C      -0.020806    1.504618    0.308424
C      -0.006959    0.017085   -0.075508
C      -1.386776   -0.547628   -0.236755
N      -2.257242   -0.858365    0.935335
C      -1.935489   -1.922767   -0.060392
C      -2.996628   -1.716630   -1.143137
O      -4.330517   -1.828793   -0.739497
C      -2.398305   -0.249008   -1.353733
O      -3.241945    0.852961   -1.188054
H       0.995492    1.905885    0.358833
H      -0.586669    2.089143   -0.422722
H      -0.492550    1.654076    1.284955
H       0.536789   -0.114045   -1.019721
H       0.542541   -0.563063    0.678194
H      -1.654052   -0.993496    1.745075
H      -1.439274   -2.833922    0.252614
H      -2.863680   -2.344749   -2.026632
H      -4.366136   -1.460398    0.153147
H      -1.924154   -0.149275   -2.333860
H      -3.580774    0.801030   -0.285806
