19

C      -0.145798    1.521625   -0.104068
N       0.090035    0.095563    0.089636
C       1.361140   -0.546735   -0.121282
C       2.554836    0.299745    0.358125
C       1.932427    0.282946    1.803098
C       2.738435   -0.566009    2.782049
O       1.579658    1.525243    2.388686
C       0.716629   -0.486649    1.249498
H       0.661596    2.178006    0.235125
H      -0.329037    1.694151   -1.169721
H      -1.051100    1.796762    0.445117
H       1.417717   -1.381462   -0.811935
H       3.511359   -0.225842    0.302978
H       2.661827    1.283673   -0.105704
H       3.689820   -0.077044    3.026531
H       2.175394   -0.706220    3.710369
H       2.968458   -1.550046    2.363196
H       2.376551    1.916978    2.762767
H       0.174959   -1.246202    1.806302
