17

C      -0.057634    1.469274    0.015556
N       0.012052    0.026339   -0.003604
C      -0.043457   -0.763844   -1.145735
C       0.037183   -2.074121   -0.745363
O       0.036300   -3.178830   -1.546154
C       0.126582   -2.084620    0.673492
O       0.169427   -3.220214    1.464369
C       0.092017   -0.774496    1.107465
N       0.195985   -0.232022    2.403029
H       0.413408    1.832140    0.931521
H       0.481369    1.873983   -0.845216
H      -1.091494    1.837540   -0.019129
H      -0.140256   -0.326494   -2.124376
H      -0.104524   -3.936492   -0.966144
H       1.080504   -3.532749    1.507074
H       0.489845   -0.961835    3.043036
H      -0.695031    0.119350    2.745637
