17

C      -0.186414    1.376128   -0.379091
O      -0.212231   -0.028203   -0.504962
C      -1.117403   -0.642665    0.405315
C      -1.124078   -2.111723    0.150022
C      -0.944048   -2.777492   -1.048970
N      -0.748949   -2.310737   -2.339999
N      -1.075088   -4.081528   -0.710946
N      -1.316080   -4.230938    0.623872
N      -1.342437   -3.036694    1.126784
H       0.526771    1.758344   -1.113154
H      -1.174571    1.821268   -0.573304
H       0.138095    1.683414    0.626346
H      -0.818261   -0.452989    1.446883
H      -2.120872   -0.201560    0.271432
H      -0.442579   -1.344568   -2.306808
H      -0.107419   -2.867604   -2.890563
H      -1.024636   -4.896956   -1.299563
