20

O      -0.301243    0.074328    0.530030
C      -0.157293    1.194974    0.078870
C      -1.212827    1.917620   -0.752081
C      -1.329820    3.406724   -0.412576
C      -1.694118    3.754451    1.062286
C      -0.357392    4.532462    1.214836
C       0.043718    4.139928   -0.237367
C       1.244227    3.204585   -0.373846
N       0.981454    1.929481    0.280215
H      -0.938605    1.801085   -1.810133
H      -2.159592    1.391709   -0.606374
H      -1.986305    3.894552   -1.137631
H      -2.599115    4.354476    1.180917
H      -1.779554    2.879651    1.712603
H      -0.472477    5.608215    1.365738
H       0.311131    4.146388    1.988689
H       0.185443    4.992751   -0.906549
H       1.482926    3.060188   -1.439234
H       2.129233    3.650397    0.091834
H       1.729394    1.442992    0.750926
