15

C      -0.093679    1.516343    0.013196
C      -0.005205    0.024898   -0.015731
C       0.216714   -0.803013   -1.095382
O       0.420450   -0.605232   -2.417660
N       0.211435   -2.081568   -0.621118
C      -0.014216   -2.001831    0.740045
N      -0.145831   -0.743392    1.115157
C      -0.081429   -3.153314    1.551504
C      -0.132935   -4.157304    2.215325
H       0.043359    1.950469   -0.984213
H      -1.067892    1.850761    0.385350
H       0.671471    1.948524    0.666810
H       0.395553    0.341107   -2.592227
H       0.346944   -2.916476   -1.166764
H      -0.181334   -5.031854    2.815300
