19

C       0.029624    1.513751   -0.163959
C      -0.137389    0.003116   -0.158460
O       0.901565   -0.555460   -0.948465
C       0.807495   -1.937237   -1.169402
C       1.096077   -2.805475    0.036782
C      -0.189421   -2.392891   -2.209662
C       1.295450   -2.357831   -2.522025
H       1.005513    1.792761    0.243722
H      -0.037806    1.904120   -1.183490
H      -0.748294    1.986630    0.443134
H      -0.092486   -0.379087    0.872765
H      -1.118515   -0.282121   -0.568568
H       0.346087   -2.674357    0.824055
H       1.098521   -3.863144   -0.241671
H       2.077116   -2.558753    0.456408
H      -0.673705   -3.355579   -2.084506
H      -0.807655   -1.632038   -2.672751
H       1.644329   -1.567133   -3.175837
H       1.832393   -3.296028   -2.609886
