17

O      -0.385965    0.483550   -0.146195
C       0.540865    0.569798    0.611044
N       1.788041    1.119006    0.339631
C       2.243185    1.681977   -0.852053
O       1.606566    1.776831   -1.869087
C       3.670802    2.235269   -0.731208
N       4.418477    1.637735    0.367675
C       5.336642    0.549473    0.024137
C       5.855584    1.892873    0.398182
H       0.506867    0.206591    1.659045
H       2.481567    1.112882    1.080088
H       4.147276    2.115466   -1.714988
H       3.578483    3.312757   -0.544465
H       5.379660   -0.272410    0.732018
H       5.403414    0.258052   -1.021890
H       6.275549    2.504864   -0.397115
H       6.281818    2.065274    1.381772
