20

C      -0.079744    1.560232    0.079789
C       0.029180    0.037254    0.026946
C      -1.341234   -0.596739   -0.218790
C       1.119566   -0.556895   -0.945846
C       1.768890   -1.260396    0.252532
O       2.221693   -2.569663    0.234046
C       2.212049   -0.263715    1.282801
C       0.750560   -0.658045    1.203081
H       0.888075    2.036734    0.262434
H      -0.469650    1.955345   -0.865446
H      -0.761789    1.876359    0.877494
H      -1.763994   -0.261660   -1.172802
H      -1.271580   -1.689125   -0.243397
H      -2.046795   -0.324369    0.575125
H       0.691221   -1.262079   -1.662037
H       1.746906    0.162894   -1.483494
H       3.152566   -2.563200   -0.014796
H       2.737229   -0.703048    2.125482
H       2.553096    0.732077    1.008530
H       0.249221   -1.114122    2.049579
