19

C      -0.126422    1.407146    0.005272
O      -0.128769    0.003022   -0.082875
C       0.790283   -0.492192   -1.034006
C       0.715545   -2.004994   -1.021851
C      -0.510389   -2.688693   -1.669186
C       0.080355   -2.564287   -3.112386
O      -0.086590   -3.975804   -3.436360
C       0.318832   -3.957964   -2.036319
C       1.335029   -2.785149   -2.204785
H       0.860413    1.797192    0.302193
H      -0.405372    1.878783   -0.950755
H      -0.860135    1.689647    0.764208
H       0.555140   -0.096042   -2.037813
H       1.813675   -0.156371   -0.789394
H       0.976192   -2.385934   -0.028511
H      -1.561358   -2.652615   -1.386389
H      -0.106628   -1.829714   -3.894333
H       0.426091   -4.902940   -1.504602
H       2.372546   -2.863228   -2.530674
