15

C       0.176767   -1.132520    0.319700
C       0.035794    0.044301    0.123206
C      -0.097871    1.483236   -0.138877
N      -0.797249    2.209059    0.948695
C       0.212936    2.948999    1.721232
C       1.450071    2.952330    0.830500
C       1.275481    2.136428   -0.212006
C       2.621166    3.690676    1.141447
N       3.553523    4.316273    1.427104
H       0.287543   -2.172993    0.502864
H      -0.650696    1.607622   -1.078985
H      -1.437952    2.868568    0.525732
H      -0.137646    3.955931    1.967050
H       0.439983    2.445523    2.670654
H       2.004943    1.901127   -0.975186
