19

C      -0.182402    1.364846    0.155441
O      -0.272401   -0.032150    0.328133
C       0.893378   -0.596302    0.915635
C       0.730535   -2.099918    0.906740
C       1.024163   -2.781359   -0.418061
O       0.535797   -2.061351   -1.536160
C       0.928454   -2.848561    2.174385
N      -0.427855   -2.643592    1.646705
H       0.641843    1.638215   -0.520150
H      -1.126109    1.701310   -0.279793
H      -0.029043    1.881179    1.115786
H       1.786871   -0.301969    0.343828
H       1.010253   -0.217169    1.944283
H       2.110248   -2.866473   -0.556414
H       0.609472   -3.799642   -0.375487
H      -0.261309   -1.596715   -1.255824
H       1.280489   -3.876359    2.139805
H       1.246837   -2.294029    3.053616
H      -0.896798   -1.891365    2.146284
