14

C      -0.275399    1.396262   -0.028078
C       0.216683   -0.020794    0.021402
N       1.126092   -0.554577    0.709706
O      -0.509157   -0.781959   -0.874373
C      -0.258067   -2.106639   -0.920194
N       0.562019   -2.656644   -1.802016
N       0.396855   -3.937988   -1.502180
N      -0.459670   -4.178666   -0.520499
N      -0.892506   -3.005774   -0.135843
H       0.296026    2.028001    0.652837
H      -0.187941    1.788460   -1.045706
H      -1.334142    1.433981    0.245421
H       1.569606    0.126217    1.321418
H       0.880344   -4.677990   -1.988811
