21

C      -0.130932    1.535186    0.067927
C       0.142475    0.068291   -0.006176
O      -0.747712   -0.816673    0.695158
C       0.657269   -0.916130    0.967532
C       1.322241   -1.763811   -0.149783
C       2.804586   -2.007615    0.017891
C       0.419636   -2.877019   -0.769504
C      -0.136602   -1.854765   -1.809669
C       0.748661   -0.736480   -1.188921
H       0.746860    2.110640   -0.243545
H      -0.962503    1.808934   -0.591959
H      -0.397367    1.823200    1.088564
H       0.960014   -0.814882    2.006465
H       2.996966   -2.743030    0.809187
H       3.251218   -2.389260   -0.906412
H       3.333475   -1.085724    0.288152
H       0.997697   -3.690323   -1.216974
H      -0.322853   -3.301073   -0.091364
H       0.132716   -2.089440   -2.842116
H      -1.211631   -1.675595   -1.755175
H       1.415369   -0.168008   -1.839865
