20

C       0.087228    1.374824    0.043733
O      -0.025683   -0.039219    0.026081
C      -1.336584   -0.586331    0.010851
C      -2.124695   -0.189255   -1.250996
C      -1.153615   -2.113380    0.071078
C      -0.357981   -2.605757    1.275160
O      -0.312855   -4.022190    1.177270
C      -2.088328   -0.123394    1.210657
N      -2.667971    0.255909    2.136059
H       1.149560    1.591028    0.173008
H      -0.252315    1.830782   -0.894911
H      -0.471170    1.816604    0.879222
H      -1.541729   -0.468506   -2.132703
H      -3.083653   -0.712464   -1.278202
H      -2.326714    0.883285   -1.282398
H      -2.138076   -2.591390    0.074728
H      -0.640685   -2.418760   -0.846416
H       0.647080   -2.165010    1.258721
H      -0.850506   -2.284437    2.205724
H       0.202726   -4.355808    1.916972
