17

C       0.134843    1.148258    0.348081
C      -0.046514   -0.348922    0.265297
O       0.817293   -1.139015    0.550962
C      -1.456681   -0.829010   -0.184689
C      -1.394856   -1.967054   -1.091596
C      -1.366075   -2.908827   -1.836506
C      -2.302563   -1.172149    1.049098
C      -1.748136   -1.834952    2.230434
O      -2.034856   -0.423676    2.231539
H      -0.612571    1.559890    1.034584
H       1.138772    1.383012    0.702954
H      -0.030763    1.607243   -0.633345
H      -1.953654    0.007645   -0.692832
H      -1.326578   -3.740622   -2.495596
H      -3.360143   -1.311806    0.825969
H      -2.404867   -2.435359    2.856557
H      -0.693250   -2.093283    2.251902
