17

O       0.394897    1.006132   -0.723855
C       0.101805   -0.222277   -0.126785
C       0.409041   -0.234818    1.370677
O       1.220867    0.476225    1.904094
C      -0.598056   -1.183391    2.010450
O      -1.433877   -1.610860    0.942079
C      -1.362574   -0.627644   -0.078201
C      -2.476177    0.367536   -0.244468
C      -2.273244   -0.767611   -1.239868
H       0.993359    1.465681   -0.116009
H       0.675203   -1.043189   -0.595101
H      -0.120214   -2.052924    2.472526
H      -1.157587   -0.640702    2.786994
H      -3.318932    0.287495    0.432617
H      -2.208106    1.371159   -0.553184
H      -1.885006   -0.527533   -2.223752
H      -2.979856   -1.589527   -1.210283
