19

C       0.052763    1.451951   -0.072664
N      -0.010816    0.006699    0.081353
C      -1.378827   -0.539867    0.327764
C      -1.104970   -1.400200    1.572563
C      -0.289524   -0.406322    2.453482
C       0.708112   -0.550142    1.253783
C       0.263324   -2.040366    1.193545
C       2.101438   -0.166226    1.352573
N       3.212542    0.133713    1.460306
H       1.092559    1.761009   -0.211619
H      -0.504101    1.734858   -0.970748
H      -0.366298    2.019386    0.777695
H      -2.104854    0.257135    0.531713
H      -1.732306   -1.120325   -0.530964
H      -1.929525   -1.987727    1.972266
H      -0.703676    0.585156    2.648954
H       0.085921   -0.855231    3.373733
H       0.694298   -2.641308    1.994606
H       0.364278   -2.529595    0.223410
