17

C       0.090290    1.399618    0.328867
O       0.036703    0.054032   -0.134263
C      -1.209615   -0.476623   -0.115442
C      -2.195772   -0.863916    0.938590
O      -3.320323   -0.219536    0.337670
C      -2.583367   -0.236321   -0.907821
C      -2.545736   -1.748802   -1.290950
O      -1.809459   -2.018756   -2.462190
C      -1.656502   -1.920476   -0.071728
H       1.136506    1.706958    0.281622
H      -0.510830    2.062335   -0.307042
H      -0.270502    1.477069    1.362305
H      -2.152716   -0.976841    2.013323
H      -2.868633    0.542359   -1.613814
H      -3.523619   -2.250151   -1.287474
H      -2.351359   -1.764420   -3.216570
H      -1.100688   -2.792850    0.245687
