18

C      -0.088680    1.455470    0.108270
C       0.057341   -0.049520   -0.009322
O       0.580381   -0.531416    1.235443
C       0.776264   -1.846947    1.316400
N       0.518997   -2.699775    0.334246
N       0.884627   -3.880068    0.918251
C       1.326037   -3.678490    2.175246
C       1.798516   -4.766961    3.077284
N       1.269904   -2.387872    2.462131
H       0.878652    1.924588    0.308394
H      -0.486840    1.865079   -0.824788
H      -0.771754    1.716566    0.921344
H      -0.904072   -0.537242   -0.209736
H       0.739953   -0.330021   -0.820317
H       0.800682   -4.738781    0.400845
H       1.737750   -5.743311    2.589199
H       2.836127   -4.592054    3.375825
H       1.194833   -4.796273    3.988874
