16

C      -0.251694    1.631157   -0.106802
C       0.004634    0.126436    0.039389
O      -1.216994   -0.582376    0.265762
C       0.778359   -0.438768   -1.101024
C       1.922289   -1.159945   -1.237719
O       2.763965   -1.559684   -0.266559
N       2.155192   -1.453570   -2.566630
C       1.152174   -0.911119   -3.183189
O       0.278110   -0.278290   -2.385870
H       0.689869    2.186563   -0.155164
H      -0.813054    1.839306   -1.023989
H      -0.833350    1.989214    0.746272
H       0.602569   -0.055738    0.938164
H      -1.752238   -0.494078   -0.530758
H       3.471413   -2.055736   -0.695659
H       0.944984   -0.910636   -4.241689
