13

N      -0.010438    1.325504    0.010645
C      -0.034358    0.061756    0.002289
O       1.206091   -0.647076   -0.007567
C       1.209425   -1.983190   -0.014679
C       0.080542   -2.711635   -0.012944
C      -1.157597   -1.963323   -0.002797
N      -1.204958   -0.663238    0.004624
C      -2.389421   -2.689879   -0.000213
C      -3.394728   -3.350615    0.001573
H       0.950763    1.664247    0.008021
H       2.214658   -2.390754   -0.021843
H       0.095539   -3.790937   -0.018728
H      -4.297810   -3.910904    0.003355
