17

C       0.532738    1.334634   -0.284485
C      -0.088241    0.008257    0.156338
O      -0.135749   -0.933080   -0.936199
C       0.907539   -1.764474   -1.178478
N       0.961620   -2.521164   -2.190027
C       2.037720   -1.761847   -0.172286
N       1.549576   -1.473945    1.165133
C       0.598482   -0.534737    1.410625
O       0.301339   -0.131482    2.517650
H       1.587431    1.216863   -0.552670
H      -0.002638    1.725894   -1.153024
H       0.463453    2.056189    0.533568
H      -1.134053    0.166110    0.426116
H       0.145173   -2.374832   -2.786877
H       2.501664   -2.747630   -0.197168
H       2.799213   -1.034566   -0.493525
H       2.071989   -1.798387    1.965772
