22

C      -0.019177    1.400215    0.107459
O      -0.006134   -0.005651    0.173226
C      -1.280334   -0.576356   -0.014314
C      -1.145934   -2.091576    0.068255
C      -2.499662   -2.798678   -0.084478
N      -2.416982   -4.247416   -0.031571
C      -2.128065   -4.892020    1.238054
C      -2.630403   -5.010732   -1.142005
O      -2.580587   -6.221853   -1.190235
H       1.005726    1.744562    0.264495
H      -0.369150    1.760979   -0.872917
H      -0.665146    1.840485    0.883883
H      -1.983873   -0.209115    0.754658
H      -1.696544   -0.278043   -0.993358
H      -0.461638   -2.437227   -0.714116
H      -0.687385   -2.345117    1.029863
H      -3.190337   -2.452934    0.697952
H      -2.950502   -2.526936   -1.045835
H      -2.836848   -4.558725    2.005685
H      -2.224931   -5.967809    1.091438
H      -1.112548   -4.669615    1.584243
H      -2.865687   -4.384908   -2.025897
