22

C      -0.524374    0.589027   -1.865449
N       0.066375   -0.330400   -0.901443
C       1.520833   -0.455603   -0.797970
C       2.482815    0.321164   -1.668688
O       2.491947   -0.146737   -3.013104
C       0.722337    0.167589    0.308574
C       0.807338    1.616355    0.679130
C      -0.135218    2.158028    1.730499
C       1.325869    1.985496    2.050215
H      -0.045973    1.574823   -1.942430
H      -0.486808    0.125369   -2.854728
H      -1.572945    0.748429   -1.594903
H       1.844008   -1.490698   -0.654617
H       2.220277    1.378643   -1.734043
H       3.488394    0.266728   -1.221192
H       2.664687   -1.093968   -2.992239
H       0.524982   -0.461651    1.179072
H       1.063426    2.306991   -0.115348
H      -0.523100    3.162331    1.602560
H      -0.837231    1.463154    2.179589
H       1.606900    1.176494    2.716656
H       1.945982    2.870092    2.141148
