14

O      -0.884543    0.741637    0.040233
C       0.048899   -0.311972   -0.142813
C       1.004593    0.003215   -1.230539
N       1.748258    0.267619   -2.073967
C       0.780605   -0.674966    1.121329
C       0.206010   -0.834703    2.369810
N       1.215496   -1.159232    3.207187
N       2.415715   -1.224877    2.600963
C       2.155795   -0.930356    1.331639
H      -0.408912    1.485301    0.430226
H      -0.560721   -1.155045   -0.490366
H      -0.813932   -0.734658    2.704627
H       1.160273   -1.336515    4.196367
H       2.953960   -0.906410    0.604653
