20

C      -0.076646    1.520647    0.123027
C       0.017287    0.013132    0.013038
C       1.105634   -0.643493   -0.908745
C       1.106015   -1.836458    0.093031
C       0.639823   -0.834287    1.174732
N       0.044038   -2.805225   -0.170458
C      -1.286554   -2.186864   -0.308641
C      -1.300724   -0.648814   -0.354813
O      -2.306436   -0.039702   -0.632076
H       0.902133    1.949089    0.361132
H      -0.431289    1.959501   -0.813932
H      -0.782970    1.815257    0.905302
H       0.850713   -0.849789   -1.953061
H       2.031633   -0.061390   -0.870419
H       2.043877   -2.373067    0.252209
H       1.483723   -0.301917    1.620089
H      -0.015034   -1.206196    1.967119
H       0.269038   -3.312524   -1.018652
H      -1.806610   -2.553618   -1.198304
H      -1.925264   -2.463188    0.543271
