16

N      -0.078861    1.477857    0.006044
C      -0.030345    0.049783   -0.025888
C       0.093281   -0.795356    1.303650
C      -1.403998   -0.536353    1.591395
C      -1.348239   -0.816708    0.071514
C      -0.308179   -1.934360    0.333561
O       0.627948   -2.005410   -0.760517
C       0.843857   -0.683239   -1.035632
O       1.567930   -0.265922   -1.890834
H       0.857417    1.847899    0.149984
H      -0.373974    1.829600   -0.901397
H       0.937689   -0.783969    1.993585
H      -1.923107   -1.272143    2.211480
H      -1.656882    0.485947    1.869546
H      -2.161209   -0.829876   -0.655174
H      -0.581898   -2.930003    0.670995
