15

C       0.126787    1.550131   -0.098449
C       0.036426    0.029017    0.029408
N       0.608549   -0.632037   -1.156204
C       1.466013   -1.460015   -0.734423
O       1.681904   -1.593699    0.596955
C       0.837667   -0.619871    1.229076
C       1.676467    0.360484    2.028962
O       2.867162    0.482474    1.933088
H       1.167701    1.880314   -0.162795
H      -0.383893    1.863311   -1.012032
H      -0.348944    2.052610    0.749890
H      -1.019269   -0.255026    0.103108
H       2.074049   -2.112106   -1.350759
H       0.164477   -1.138341    1.921742
H       1.075228    0.984334    2.729371
