20

C       0.405530    1.404202    0.130179
C      -0.022954   -0.071269   -0.007852
C      -1.545319   -0.178708   -0.108550
C       0.721451   -0.779766   -1.160474
O       0.900301    0.081656   -2.265355
C       2.044688   -1.265311   -0.517820
N       1.641155   -1.488823    0.856269
C       0.503880   -0.823938    1.231158
O       0.020109   -0.813858    2.342180
H       1.491651    1.511883    0.209184
H       0.076067    1.976428   -0.739800
H      -0.043427    1.829985    1.031515
H      -1.913476    0.384391   -0.971825
H      -1.865555   -1.220312   -0.215670
H      -2.008664    0.219539    0.797749
H       0.137002   -1.665098   -1.452181
H       1.208215   -0.439347   -3.013158
H       2.424003   -2.182428   -0.981834
H       2.814159   -0.486819   -0.615931
H       2.214840   -1.948628    1.545749
