13

O       0.046895    1.362596   -0.138192
C       0.053675    0.006405   -0.035520
C      -0.006094   -0.737842   -1.213420
N      -0.004246   -2.075832   -1.206837
C       0.055478   -2.684848   -0.059464
F       0.057202   -4.033245   -0.046482
C       0.118779   -2.052200    1.187070
O       0.178984   -2.751255    2.344969
C       0.117346   -0.665133    1.188932
H       0.091937    1.753233    0.740454
H      -0.055992   -0.235658   -2.173266
H       0.168412   -3.690143    2.119193
H       0.165285   -0.132367    2.133440
