18

C      -0.014373    1.446392   -0.143788
N      -0.032551   -0.003871    0.060751
C      -1.179867   -0.612214    0.864175
C      -0.227664   -1.837698    1.053010
O       0.050721   -2.629009   -0.052174
C       0.693469   -0.585626    1.294280
C       2.176486   -0.525985    1.473500
C      -0.484892    0.019105    2.087567
O      -0.696631    0.777666    2.984029
H       0.971422    1.731100   -0.523256
H      -0.753957    1.695978   -0.910328
H      -0.229454    2.039721    0.756887
H      -2.209221   -0.578559    0.513028
H      -0.416909   -2.482931    1.911109
H       0.192679   -2.003387   -0.778724
H       2.680458   -1.109831    0.696754
H       2.544156    0.504106    1.432735
H       2.452349   -0.941198    2.447544
