19

C      -0.182109    1.520788    0.038222
C       0.021550    0.011167    0.033121
C       1.181335   -0.595592   -0.857679
C       2.151217   -0.223706    0.317287
C       0.905937   -0.637084    1.167276
C       0.791843   -2.124139    0.762939
C       0.975243   -2.079943   -0.572087
C       0.541923   -3.200107    1.631129
C       0.327362   -4.095776    2.410344
H       0.743671    2.085115    0.174887
H      -0.633225    1.846228   -0.905858
H      -0.867923    1.807843    0.843190
H      -0.942615   -0.486729   -0.107911
H       1.354121   -0.280369   -1.886555
H       3.052281   -0.830641    0.427882
H       2.399704    0.838156    0.374191
H       0.793345   -0.386286    2.221425
H       0.968127   -2.889397   -1.287455
H       0.139136   -4.894066    3.084071
