20

C       0.002490    1.572362    0.069679
C      -0.029458    0.047281    0.188481
C      -1.419037   -0.546005   -0.108733
C      -1.426349   -2.053426   -0.036249
N      -0.798648   -2.699210   -1.031106
C      -0.760881   -4.031529   -0.992036
C      -1.335562   -4.794914    0.020785
C      -1.986472   -4.126006    1.051260
C      -2.032366   -2.736833    1.021966
H       1.000928    1.966142    0.284284
H      -0.273684    1.896461   -0.939878
H      -0.697793    2.041970    0.769875
H       0.690011   -0.402020   -0.504709
H       0.281611   -0.254056    1.196976
H      -2.155020   -0.135110    0.592146
H      -1.724311   -0.244165   -1.117516
H      -0.245478   -4.517718   -1.817907
H      -1.273873   -5.877009   -0.003692
H      -2.452674   -4.675528    1.862863
H      -2.533484   -2.181520    1.807831
