18

O       0.198378    0.150841   -0.664218
C       0.087229    1.236659   -0.175200
C      -1.112551    2.060215    0.346967
C      -0.102881    3.111233    0.835420
C      -0.236926    4.614427    1.069118
C       0.649624    4.392373    2.326865
N       0.518522    2.900981    2.200728
C       1.710962    2.240234    1.582819
C       1.093885    2.355736    0.157006
H      -1.724497    2.412561   -0.493153
H      -1.760457    1.594719    1.093676
H       0.146766    5.277174    0.290444
H      -1.260157    4.913490    1.310875
H       1.680885    4.747366    2.211532
H       0.254118    4.774219    3.271656
H       2.635452    2.815095    1.704896
H       1.883937    1.223596    1.947849
H       1.714097    2.719282   -0.663827
