16

C      -0.028883    1.542099    0.004357
C      -0.021384    0.024465    0.093787
O      -0.031306   -0.562838    1.145374
N      -0.002018   -0.654562   -1.141799
C       0.010573   -0.052508   -2.423773
C       0.027985   -0.950831   -3.407863
C       0.028188   -2.328540   -2.816695
C       0.007936   -2.079224   -1.302449
O       0.001631   -2.896707   -0.428406
H       0.860642    1.918480   -0.510976
H      -0.909168    1.908474   -0.533547
H      -0.044042    1.928415    1.022630
H       0.005573    1.022804   -2.500803
H       0.039970   -0.722593   -4.462746
H      -0.843401   -2.932921   -3.093633
H       0.913018   -2.923233   -3.071731
