22

C      -0.255825    1.465522    0.113979
C      -0.034385   -0.039097   -0.039839
N       0.725609   -0.394207   -1.238167
C       2.105122    0.077023   -1.195395
C       0.649136   -1.812962   -1.510653
C       1.032152   -2.186918   -2.937117
O       1.411326   -1.447195   -3.806751
O       0.883677   -3.519410   -3.099731
C       1.213600   -4.018400   -4.401234
H       0.671896    2.003378    0.327384
H      -0.691360    1.882260   -0.798859
H      -0.941083    1.656078    0.945729
H       0.442106   -0.437780    0.878942
H      -1.012154   -0.528573   -0.117550
H       2.674981   -0.357700   -0.350337
H       2.605172   -0.180555   -2.129442
H       2.129530    1.164077   -1.096267
H       1.269548   -2.433308   -0.832432
H      -0.380661   -2.157026   -1.364609
H       0.574983   -3.563854   -5.162996
H       2.256782   -3.801425   -4.645067
H       1.047946   -5.094961   -4.357853
