20

O      -0.289538    1.354325   -0.174231
N      -0.081412   -0.027556    0.010042
C      -1.178848   -0.672647   -0.006732
C      -2.586815   -0.129182   -0.134583
C      -3.459047   -1.195175    0.563393
C      -2.712807   -2.522051    0.357795
C      -2.740082   -3.135538   -1.075342
C      -1.196246   -2.989787   -1.168349
C      -1.196516   -2.172394    0.163739
H       0.603282    1.703926   -0.085457
H      -2.670723    0.869816    0.297050
H      -2.846308   -0.033183   -1.197181
H      -3.521567   -0.970398    1.634422
H      -4.483058   -1.224306    0.177713
H      -2.927095   -3.251407    1.141113
H      -3.128091   -4.154159   -1.146897
H      -3.284585   -2.518834   -1.796886
H      -0.670380   -3.941564   -1.061378
H      -0.797449   -2.473411   -2.044588
H      -0.475748   -2.499999    0.914178
