19

O      -0.639474    1.479994   -0.299575
C      -0.424880    0.111148   -0.453319
C       0.144510   -0.722837    0.677568
C      -1.310370   -0.845633    0.306162
O      -2.191968   -0.236404    1.224680
C      -1.848679   -2.116600   -0.299493
C      -2.952011   -1.991739   -1.382192
C      -1.934772   -2.711209   -2.289078
O      -0.929758   -2.700211   -1.249727
H      -1.182117    1.578280    0.494420
H      -0.124405   -0.138323   -1.464743
H       0.798852   -1.548776    0.423086
H       0.361271   -0.215660    1.611941
H      -3.000353   -0.010836    0.746991
H      -2.093919   -2.824641    0.504939
H      -3.881874   -2.526152   -1.185390
H      -3.175725   -0.964847   -1.681194
H      -2.207445   -3.734357   -2.574391
H      -1.604426   -2.168038   -3.181266
