20

C      -0.055060    1.571184   -0.076858
C       0.100971    0.061643   -0.085584
C       0.791503   -0.708445   -1.234964
C       2.206538   -0.077445   -1.300563
C       2.394605   -0.620564    0.117172
C       3.655974   -0.681046    0.923256
O       4.723472   -1.294341    0.212154
C       1.332921   -1.643807   -0.086825
N       1.093165   -0.535735    0.879660
H       0.888868    2.090166   -0.258781
H      -0.773039    1.887353   -0.841720
H      -0.432747    1.899256    0.896970
H      -0.860028   -0.409874    0.148721
H       0.263747   -1.002581   -2.140810
H       2.856853   -0.619474   -1.990947
H       2.295406    0.997477   -1.486174
H       4.001762    0.332775    1.154893
H       3.449868   -1.183005    1.879443
H       4.449252   -2.193589    0.003721
H       1.238243   -2.694465    0.157655
