17

C       0.784920   -0.936019    0.122884
C       0.342188    0.180937    0.114888
C      -0.224055    1.543079    0.084779
O      -0.856733    1.873772    1.305986
C       0.123331    2.516744    2.122923
C       1.276015    2.808860    1.161516
C       2.247606    3.930366    1.282798
C       2.711928    2.491944    1.462162
O       0.763713    2.528120   -0.125096
H       1.177040   -1.923341    0.129904
H      -0.962803    1.629513   -0.717830
H      -0.328661    3.424753    2.535538
H       0.433551    1.863148    2.947091
H       2.528562    4.436862    0.366202
H       2.185382    4.571900    2.155762
H       2.966501    2.149920    2.460376
H       3.296965    2.053836    0.662187
