18

C      -0.123919    1.368188   -0.020428
O      -0.083802   -0.045992   -0.055999
C       0.672555   -0.550788   -1.106579
C       0.110552   -0.447307   -2.556825
C       0.321905   -1.986722   -2.734168
C       0.886314   -2.074139   -1.297024
O       2.319679   -1.911938   -1.254369
C       2.214480   -0.491052   -1.001127
H       0.877878    1.801933    0.116062
H      -0.562400    1.788088   -0.937076
H      -0.747271    1.650324    0.830611
H      -0.944057   -0.162280   -2.558545
H       0.655273    0.205107   -3.243858
H      -0.609777   -2.539029   -2.879087
H       1.040596   -2.290494   -3.497278
H       0.525504   -2.849275   -0.617353
H       2.754494    0.106567   -1.745769
H       2.567997   -0.235531    0.006218
