17

C       0.111076    1.167276   -0.509130
N      -0.260011    0.241295    0.556180
C      -1.468256   -0.484393    0.336336
C      -1.590849   -1.672469   -0.582132
N      -0.480771   -2.099294   -1.370027
C      -1.653540   -1.860057    0.968330
C      -0.528694   -2.478811    1.595434
N       0.414124   -2.971604    2.055025
H       1.041740    1.670870   -0.234605
H       0.240320    0.698192   -1.496468
H      -0.664204    1.936065   -0.605955
H       0.507558   -0.346921    0.853925
H      -2.350554    0.150628    0.393008
H      -2.550672   -1.813530   -1.071191
H       0.394929   -1.761682   -0.985633
H      -0.417195   -3.111857   -1.409710
H      -2.612683   -2.079219    1.424111
