18

N      -0.015494    1.197464   -0.369561
C      -0.002809   -0.016324   -0.051862
O       1.017247   -0.806380    0.441265
C       0.131291   -1.967190    0.521670
C      -1.032398   -1.127133   -0.040095
C      -2.392776   -1.020587    0.719970
C      -3.124998   -1.439987   -0.561295
C      -2.787275   -0.493743   -1.677467
C      -1.790749   -1.556520   -1.299913
H       0.899401    1.631010   -0.232322
H       0.493783   -2.779613   -0.114448
H       0.027411   -2.308863    1.555417
H      -2.455034   -1.764545    1.518543
H      -2.642405   -0.036024    1.126329
H      -3.984300   -2.097036   -0.602967
H      -3.308891   -0.674504   -2.611859
H      -2.564367    0.550001   -1.476331
H      -1.443056   -2.306046   -2.001025
