20

C       0.160817    1.545828    0.021287
C       0.028099    0.020004   -0.025203
C       0.886830   -0.593916   -1.147851
O       2.162164   -0.804550   -0.562589
C       1.925687   -1.333461    0.745630
C       3.168475   -1.044114    1.573186
O       4.325488   -1.613672    0.996723
C       0.621024   -0.665223    1.239975
H       1.214638    1.836093    0.092599
H      -0.256548    2.009409   -0.878963
H      -0.362779    1.963675    0.887196
H      -1.024513   -0.248857   -0.156686
H       0.459591   -1.549395   -1.494334
H       1.016191    0.062177   -2.013151
H       1.795327   -2.424780    0.667368
H       3.266841    0.048719    1.687255
H       3.060322   -1.477330    2.573461
H       4.320421   -1.342226    0.071275
H       0.827467    0.074670    2.020570
H      -0.061552   -1.404783    1.664956
