19

C       0.331851    1.465441   -0.233951
O       0.518144    0.054107   -0.057532
C       0.374159   -0.689304   -1.170618
O       0.121587   -0.236951   -2.258084
C       0.528850   -2.171813   -0.857448
C      -0.730278   -3.019297   -1.169684
C       0.158546   -3.684125   -2.247373
C      -0.228408   -3.480917   -3.697550
O       1.290419   -2.854317   -1.861607
H       1.072569    1.864487   -0.931212
H      -0.666821    1.675639   -0.625017
H       0.458516    1.908015    0.753893
H       0.953227   -2.296171    0.143506
H      -1.057212   -3.667021   -0.356107
H      -1.579032   -2.456688   -1.560974
H       0.383194   -4.739563   -2.047146
H      -0.427805   -2.422698   -3.885393
H       0.583583   -3.804613   -4.356281
H      -1.121120   -4.068298   -3.940753
