18

N      -0.142994   -1.146421   -0.280553
C      -0.092581   -0.001244   -0.128816
C      -0.025898    1.434127    0.076947
C      -0.029115    1.919481    1.551739
O       1.304683    2.434918    1.437551
C       1.396820    2.095414    0.033285
C       2.581087    1.250883   -0.304600
C       3.099782    1.243489   -1.724641
C       3.892905    1.918103   -0.639531
H      -0.760844    1.924978   -0.563373
H      -0.766373    2.703648    1.759946
H      -0.109533    1.131813    2.307456
H       1.393998    3.004369   -0.584759
H       2.633435    0.312782    0.238818
H       3.454748    0.300532   -2.122934
H       2.598444    1.871952   -2.453633
H       3.926293    3.002429   -0.629838
H       4.801518    1.442883   -0.288726
