13

O      -0.033875    1.240941    0.009481
C       1.084192    1.989393    0.002461
C       2.346087    1.491472   -0.012923
C       2.460629    0.086724   -0.021873
C       3.429596   -0.880358   -0.036961
C       2.707133   -2.128578   -0.036592
N       1.390216   -2.021281   -0.022869
C       1.181508   -0.659969   -0.013250
N      -0.007672   -0.137211    0.001553
H       0.824731    3.040180    0.010889
H       3.192849    2.166633   -0.017646
H       4.501937   -0.756317   -0.047024
H       3.170120   -3.110447   -0.046691
