14

C       0.102277    1.408108   -0.058256
N       0.072316   -0.034260   -0.020157
N       0.126772   -0.778316   -1.164042
C       0.079124   -2.020539   -0.758568
N      -0.004382   -2.090248    0.617252
C      -0.011035   -0.796037    1.136769
O      -0.072937   -0.431368    2.290886
C       0.107304   -3.157182   -1.593225
C       0.128270   -4.155237   -2.264558
H       1.029299    1.762466   -0.517730
H      -0.749259    1.796651   -0.623910
H       0.047212    1.752610    0.975477
H      -0.054026   -2.921152    1.180621
H       0.147685   -5.026543   -2.872172
