21

O      -0.093468    1.417243    0.278209
C      -0.008775    0.029502   -0.036826
C      -1.409446   -0.532594   -0.008961
C      -2.398528    0.065987   -1.019873
C      -3.674170   -0.747935   -0.683420
C      -3.125479   -1.622948    0.439831
C      -1.670015   -2.078886    0.089307
C      -1.334327   -2.048700    1.600006
C      -2.173615   -0.774668    1.344970
H       0.790473    1.791134    0.220384
H       0.418411   -0.119658   -1.042720
H       0.646249   -0.493415    0.674649
H      -2.517377    1.141467   -0.868442
H      -2.058980   -0.084264   -2.050995
H      -4.503219   -0.117616   -0.345978
H      -4.036854   -1.340434   -1.529724
H      -3.789490   -2.345343    0.919303
H      -1.384477   -2.833788   -0.648111
H      -1.806348   -2.822235    2.212751
H      -0.288675   -1.921692    1.888868
H      -2.467813   -0.008378    2.064546
