16

C       0.116930    1.438526   -0.330100
C       1.441856    1.976598    0.278797
N       2.126731    0.745179    0.630706
C       3.373940    0.350063    1.053324
C       3.245186   -0.998631    1.291903
N       1.959007   -1.434111    1.041088
C       1.323173   -0.353709    0.651149
C      -0.077265    0.014347    0.266046
H      -0.723071    2.104625   -0.124481
H       0.225391    1.368165   -1.415905
H       2.021207    2.571769   -0.432649
H       1.267639    2.590213    1.171503
H       4.207810    1.027663    1.127727
H       4.012370   -1.682985    1.622585
H      -0.732806    0.031552    1.145483
H      -0.519305   -0.681987   -0.450337
