9

N       0.006232    1.341974    0.140802
C      -0.045089   -0.009251    0.044967
N      -1.109570   -0.769308    0.029125
C      -0.537497   -2.012923   -0.015858
N       0.764850   -2.056040   -0.032294
O       1.112196   -0.675875    0.009950
H       0.858609    1.790338   -0.153750
H      -0.849771    1.823599   -0.081604
H      -1.116559   -2.925529   -0.039508
