19

C      -0.561714    2.013987   -0.675298
N      -0.723645    0.594646   -0.429861
C       0.170073   -0.250573   -0.776257
N      -0.214943   -1.574159   -0.431080
C       0.322582   -2.823560   -0.553854
O       1.382888   -3.144053   -1.044228
C       1.446172    0.089868   -1.450491
C       2.809990   -0.543060   -1.216299
C       2.147764   -0.697266   -2.547574
H      -0.471157    2.252386   -1.744240
H      -1.444802    2.535150   -0.296489
H       0.314905    2.435959   -0.164253
H      -1.122719   -1.536632    0.016153
H      -0.373030   -3.569020   -0.121487
H       1.501650    1.159675   -1.601947
H       3.637100    0.150023   -1.109043
H       2.860708   -1.431289   -0.602762
H       1.775550   -1.683995   -2.783755
H       2.502276   -0.114402   -3.390513
