14

N      -0.100451    1.256863    0.006920
C       0.012057   -0.000301    0.000150
C      -1.179440   -0.932043    0.002519
O      -0.631452   -2.248503   -0.006660
C       0.731431   -2.215233   -0.014440
N       1.501516   -3.204800   -0.023484
N       1.137084   -0.855043   -0.010474
C       2.461519   -0.394209   -0.016398
O       3.445512   -1.074188   -0.025290
H       0.783549    1.761347    0.004312
H      -1.792473   -0.789758    0.897213
H      -1.802454   -0.781494   -0.883898
H       0.959700   -4.067938   -0.024369
H       2.486832    0.709773   -0.011723
