19

O      -0.034442   -0.089823   -0.291466
C       0.064489    1.092707   -0.083492
C       1.353192    1.876246   -0.175098
C       1.320576    2.950077   -1.281999
C       0.233456    4.046373   -1.097720
C       0.805771    5.328177   -1.750366
C       2.305742    5.157416   -1.625109
O       2.729832    4.730555   -0.319601
C       2.611971    3.748742   -1.359386
H      -0.831008    1.696406    0.191767
H       1.522822    2.383143    0.784793
H       2.169496    1.167733   -0.345228
H       1.185620    2.450269   -2.251120
H      -0.728323    3.756382   -1.526832
H       0.075817    4.223202   -0.030594
H       0.546549    5.387378   -2.814602
H       0.438017    6.241067   -1.272303
H       2.993803    5.821541   -2.141914
H       3.541487    3.270651   -1.660124
