19

O      -0.005460    1.402533   -0.301936
C       0.043130    0.027550    0.066046
C      -1.388522   -0.471666    0.103042
C      -2.019270   -0.718747   -1.289460
O      -1.230688   -1.967306   -1.353721
C      -1.545309   -2.011471    0.086551
C      -3.063811   -2.281263    0.055941
C      -4.038765   -1.169900    0.354332
C      -3.433106   -1.272655   -1.022782
H       0.897721    1.717067   -0.400731
H       0.624805   -0.563627   -0.651341
H       0.497494   -0.097278    1.063012
H      -1.947144    0.113628    0.834015
H      -1.861074   -0.052345   -2.135748
H      -0.906360   -2.688178    0.655170
H      -3.401409   -3.309951    0.027309
H      -5.078509   -1.477205    0.424400
H      -3.793420   -0.358489    1.028145
H      -4.052256   -1.534924   -1.871782
