19

O       0.109926    1.028437    0.719617
C       0.009016   -0.268730    0.168178
C      -1.392497   -0.514448   -0.361823
C      -1.835016   -1.981316   -0.560093
C      -2.752805   -1.699350    0.619498
C      -4.149038   -2.168149    0.892100
C      -2.995768   -2.556303    1.811587
O      -2.461265   -3.845499    1.763572
O      -2.361648   -0.329237    0.717243
H      -0.622012    1.102491    1.344788
H       0.739499   -0.334913   -0.646316
H       0.257461   -1.045987    0.909516
H      -1.615938    0.171324   -1.186221
H      -2.339544   -2.189331   -1.504763
H      -1.068540   -2.737009   -0.377602
H      -4.866399   -1.445767    1.267735
H      -4.553749   -2.931397    0.234239
H      -2.963208   -2.062003    2.783198
H      -3.095905   -4.449357    2.164004
