21

C       0.357995    1.501959    0.251073
C       0.191848   -0.002262    0.138958
C       0.646025   -0.637475   -1.198393
C       1.236883   -1.981481   -0.775636
C       2.598672   -2.025203   -0.079398
C       3.584151   -0.865634   -0.053464
O       3.911919   -0.460665    1.264221
C       1.328799   -1.937254    0.722310
O       0.992453   -0.638466    1.158574
H       1.399447    1.790831    0.077645
H      -0.270229    2.008318   -0.488396
H       0.064235    1.850409    1.245106
H      -0.860154   -0.271174    0.322315
H      -0.201621   -0.780888   -1.873911
H       1.366649    0.004516   -1.715741
H       0.906682   -2.876044   -1.289868
H       3.057872   -3.010381   -0.076921
H       4.523098   -1.173705   -0.524128
H       3.205532   -0.017714   -0.641826
H       3.070737   -0.216706    1.671320
H       1.001849   -2.734626    1.382167
