19

C      -0.143350    1.532570    0.077806
C       0.024384    0.025701    0.001661
C       0.717148   -0.597195   -1.246804
C       2.023012   -0.274537   -0.484734
N       1.220408   -0.529151    0.777003
C       0.968420   -1.980622    0.625030
C       0.593067   -2.106402   -0.920125
C      -0.725222   -2.669927   -1.171871
N      -1.776660   -3.114021   -1.360362
H       0.737062    2.087607   -0.254451
H      -0.987965    1.840418   -0.546870
H      -0.358341    1.829304    1.108442
H      -0.915662   -0.450575    0.300218
H       0.511649   -0.293071   -2.273995
H       2.887700   -0.931219   -0.619303
H       2.340620    0.764852   -0.543630
H       1.864624   -2.554198    0.868954
H       0.152424   -2.299730    1.275181
H       1.331390   -2.699281   -1.467670
