18

O      -0.288470    1.443547   -0.104749
C      -0.035324    0.083799   -0.074157
C       0.730810   -0.677571   -1.155248
C      -0.050767   -1.953064   -0.712911
C       0.631278   -2.703615    0.438973
C       1.803679   -2.109961    1.145353
N       0.444667   -1.909517    1.669595
C      -0.279077   -0.721569    1.223254
C      -1.087896   -1.007716   -0.000002
H       0.429159    1.898744    0.349432
H       0.380303   -0.340881   -2.135937
H       1.824508   -0.699010   -1.161284
H      -0.404193   -2.603024   -1.511126
H       0.446196   -3.772151    0.524981
H       2.431741   -2.749289    1.761343
H       2.321948   -1.262466    0.712647
H      -0.717931   -0.126529    2.016558
H      -2.163586   -0.976867   -0.111025
