15

C       0.010781    1.527132   -0.055068
N       1.387999    2.009425    0.125760
C       2.353935    1.219483    0.275392
O       2.356006   -0.164442    0.303542
C       1.101801   -0.671712    0.140268
C      -0.055428    0.028970   -0.033963
C      -1.088760   -0.949839   -0.157316
C      -0.504302   -2.189610   -0.050765
N       0.856196   -2.010134    0.133095
H      -0.603382    1.985590    0.732899
H      -0.363920    1.950626   -0.997683
H       3.371670    1.574924    0.408924
H      -2.141468   -0.763907   -0.306848
H      -0.925917   -3.179943   -0.088695
H       1.547590   -2.730846    0.243258
