18

C      -0.058474    1.457444    0.067513
C       0.017880   -0.037866   -0.063655
C      -0.327369   -0.750348   -1.353109
C      -0.213490   -2.180070   -0.859066
O      -0.396309   -3.281898   -1.680452
C       0.854575   -2.293111    0.215297
C      -0.604155   -2.223048    0.601703
N      -0.472887   -0.818456    1.133213
C       0.977122   -0.855787    0.732799
H       0.635819    1.947235   -0.623825
H      -1.069044    1.818009   -0.151919
H       0.193092    1.765948    1.085786
H      -1.338749   -0.509500   -1.702660
H       0.384704   -0.525568   -2.154124
H      -1.338874   -3.369286   -1.862193
H       1.565104   -3.104718    0.273393
H      -1.272200   -2.939415    1.062238
H       1.754730   -0.458070    1.376068
