12

O      -0.013551    0.002452   -0.079110
C      -0.030173    1.188506    0.029158
C      -1.099641    2.285626   -0.081279
O      -0.881315    3.109939    1.084007
C      -0.037254    3.324300   -0.045577
C       1.067649    2.283601    0.113417
C       2.381968    2.332233    0.746514
O       2.231393    2.205329   -0.677166
H      -2.083692    2.288658   -0.532906
H      -0.018738    4.295442   -0.522718
H       2.772406    3.287738    1.091861
H       2.762213    1.446703    1.251478
