22

C       0.206967    1.576386   -0.159623
C       0.012106    0.058373   -0.032980
C      -1.427189   -0.371147    0.031744
N      -1.903842   -1.651454   -0.568371
C      -2.509869   -0.361851   -0.995612
C      -3.577356   -0.013582    0.049160
C      -2.458282   -0.070499    1.118028
C      -2.528294   -0.661496    2.491543
C      -2.316581    0.826455    2.311686
H       1.270936    1.829941   -0.198219
H      -0.263845    1.952715   -1.073334
H      -0.235406    2.112981    0.683765
H       0.487802   -0.435741   -0.890054
H       0.541261   -0.313138    0.855366
H      -1.226340   -1.904423   -1.289387
H      -2.479263   -0.056998   -2.035035
H      -3.984831    0.993354   -0.079490
H      -4.392615   -0.735911    0.148640
H      -3.494495   -1.002727    2.848620
H      -1.690880   -1.259695    2.836207
H      -1.336865    1.227706    2.549916
H      -3.137070    1.498590    2.544301
