18

C       0.054048    1.561052   -0.115613
C      -0.109945    0.047732    0.068135
C       0.698825   -0.475521    1.250781
C       0.802036   -2.036253    1.442491
N       2.255268   -1.879573    1.280914
C       2.238277   -0.521990    1.073942
O       3.101980    0.276358    0.824890
C       0.356648   -2.587580    2.711942
C      -0.020441   -3.048119    3.756212
H       1.107763    1.822498   -0.243504
H      -0.500095    1.909858   -0.991931
H      -0.322245    2.105590    0.757232
H      -1.167356   -0.203232    0.218075
H       0.207782   -0.472953   -0.844473
H       0.415497    0.026372    2.179987
H       0.343728   -2.586394    0.611703
H       3.005760   -2.553975    1.314193
H      -0.351329   -3.452124    4.681161
