23

C       0.388382    1.662681   -0.086903
C      -0.028616    0.193652    0.057291
C       0.242666   -0.576060   -1.244364
O      -0.390443   -1.851434   -1.220142
C       0.416411   -2.908004   -0.776478
O       1.174363   -2.609582    0.360768
C       0.462125   -1.964841    1.427030
C       1.038304   -2.496539    2.734792
C       0.638241   -0.445719    1.288000
H       1.465162    1.751144   -0.274204
H      -0.135618    2.147367   -0.917461
H       0.165956    2.227729    0.823741
H      -1.117389    0.153798    0.200361
H      -0.195234   -0.032950   -2.089454
H       1.321811   -0.674286   -1.428852
H      -0.285014   -3.737571   -0.598836
H       1.156505   -3.203466   -1.535731
H      -0.603984   -2.225698    1.363716
H       2.105839   -2.264111    2.804082
H       0.530629   -2.049123    3.594762
H       0.922989   -3.582443    2.789051
H       1.719196   -0.250745    1.260517
H       0.254650    0.044192    2.191952
