18

C      -0.244829    1.543343   -0.002210
C       0.071738    0.051080    0.006630
C       0.850002   -0.504394   -1.195930
C       1.472892   -1.836363   -0.679591
C       1.858067   -1.515204    0.785721
C       0.911522   -0.384529    1.215002
O       0.860517    0.093944    2.316868
C       0.506221   -2.934112   -0.755721
N      -0.264998   -3.793299   -0.814790
H       0.663235    2.135631   -0.158188
H      -0.954851    1.794655   -0.794988
H      -0.673728    1.838250    0.958746
H      -0.867788   -0.516847    0.097075
H       0.234776   -0.652188   -2.085092
H       1.666457    0.177143   -1.462169
H       2.343857   -2.123251   -1.274854
H       1.800103   -2.365191    1.467694
H       2.882895   -1.129823    0.829942
