17

C      -0.082754    1.549565    0.216351
C      -0.011367    0.063674   -0.045133
C       0.679350   -0.592950   -1.191011
C       1.775172    0.146887   -1.990179
C       1.251306    1.318376   -2.808851
O       1.442016    2.480642   -2.572456
N       2.795401    0.517606   -1.001712
C       2.422060    0.031344    0.112795
N       1.230769   -0.747567    0.179790
H       0.790259    2.092890   -0.145245
H      -0.964199    1.963403   -0.284410
H      -0.195705    1.734108    1.289819
H      -0.878575   -0.479415    0.326045
H       0.241194   -1.483283   -1.630029
H       2.211800   -0.556878   -2.715008
H       0.632847    0.998730   -3.679582
H       2.994552    0.154012    1.027670
