21

C      -0.033911    1.632431    0.030298
C       0.114022    0.109735    0.023521
C       0.823978   -0.631581   -1.109551
C       2.313780   -0.789090   -0.733282
C       2.527627   -0.206192    0.657756
O       2.969297    1.109307    0.885455
C       1.076075   -0.664801    0.979017
C       1.263914   -1.734697   -0.183104
C       1.137080   -3.221906   -0.222977
H       0.822474    2.148354   -0.417337
H      -0.906941    1.931351   -0.560052
H      -0.172289    2.020903    1.044573
H      -0.879861   -0.336337    0.147298
H       0.512708   -0.727753   -2.143360
H       3.058468   -1.009064   -1.488840
H       3.228441   -0.840368    1.209926
H       2.468605    1.701808    0.319111
H       0.779372   -0.870000    2.006629
H       0.122639   -3.548702    0.033830
H       1.363455   -3.602037   -1.225139
H       1.827452   -3.705917    0.477543
