15

O      -0.228072    1.342882    0.097548
C       0.020335   -0.057817   -0.011287
C       0.799871   -0.375328   -1.216032
C       1.447081   -0.612754   -2.200175
C       0.656523   -0.617504    1.224328
C       0.237331   -1.487001    2.181307
C       1.302938   -1.582272    3.135347
C       2.283687   -0.759272    2.684312
O       1.908918   -0.164741    1.520051
H       0.630641    1.776772    0.162886
H      -0.970677   -0.516727   -0.096674
H       2.015441   -0.828173   -3.071170
H      -0.712974   -1.996924    2.206292
H       1.328705   -2.180855    4.032129
H       3.261347   -0.493262    3.050646
