18

O       0.241174    1.359522    0.178826
C       0.079750   -0.030658    0.016326
C       0.283497   -0.886636    1.309118
C      -1.201219   -1.296988    1.245466
C      -1.398090   -0.491219   -0.024065
N      -1.563059   -1.927280   -0.002727
C      -0.668723   -2.836328   -0.727284
C      -0.682928   -4.167415   -0.129446
C      -0.678487   -5.258529    0.372841
H      -0.324620    1.643797    0.905919
H       0.695117   -0.291697   -0.849333
H       1.019748   -1.695909    1.290474
H       0.506713   -0.234078    2.157307
H      -1.862006   -1.437492    2.094065
H      -2.225533    0.128602   -0.357957
H      -1.035111   -2.889422   -1.759563
H       0.373591   -2.488500   -0.785551
H      -0.679952   -6.226229    0.809907
