12

F       0.001082    0.064843    0.003097
C      -0.016721    1.380967    0.010896
N      -1.216747    1.935569    0.029646
C      -1.226714    3.265756    0.036814
C      -0.052617    4.033475    0.025296
C       1.141821    3.297980    0.005444
N       1.167852    1.968012   -0.001937
C      -0.071814    5.452248    0.033089
C      -0.088159    6.655837    0.039689
H      -2.199206    3.749647    0.052307
H       2.100860    3.808150   -0.004646
H      -0.102983    7.717943    0.045508
