19

C      -0.031948    1.565459   -0.007880
C       1.476169    1.981415   -0.020687
C       2.214345    0.622732    0.006338
C       2.035610   -0.002943    1.409278
C       0.527494   -0.418903    1.422068
C       0.031219    0.020599    0.024859
C       1.274914   -0.256417   -0.846130
H      -0.575513    1.971494    0.850607
H      -0.544516    1.915543   -0.909305
H       1.722525    2.540807   -0.928566
H       1.748227    2.612421    0.830864
H       3.254395    0.679610   -0.321630
H       2.685498   -0.874854    1.532845
H       2.286725    0.702303    2.207335
H       0.418464   -1.500139    1.552051
H      -0.037011    0.061366    2.227054
H      -0.895978   -0.465111   -0.286419
H       1.168945    0.096077   -1.877399
H       1.565891   -1.311904   -0.862792
