16

O       0.044671    1.349122   -0.476354
C       0.037571    0.139977    0.257596
C      -1.342732   -0.464091    0.311871
O      -1.772807   -1.121524   -0.901911
C      -1.568081   -1.909421    0.243670
C      -0.646233   -3.124315    0.360707
O      -1.719164   -3.829108    1.062789
C      -2.601480   -2.768453    0.920614
N      -3.796648   -2.628731    1.259360
H      -0.272385    1.146081   -1.363723
H       0.743462   -0.595127   -0.158896
H       0.370970    0.391818    1.270226
H      -2.118070    0.147577    0.772106
H      -0.402071   -3.611167   -0.586422
H       0.240237   -3.025828    0.991410
H      -4.168060   -3.465753    1.710851
