23

C       0.030723    1.541031   -0.028951
C      -0.012154    0.003995   -0.013335
C      -1.483244   -0.451492    0.084388
C       0.618509   -0.555024   -1.313292
C       1.000773   -2.026665   -1.177492
O       2.016010   -2.201538   -0.198791
C       1.688122   -1.709975    1.070070
C       2.222673   -0.350249    1.436592
C       0.738025   -0.544429    1.205051
H       1.060589    1.907819   -0.076820
H      -0.510221    1.938576   -0.895635
H      -0.430996    1.957575    0.873170
H      -2.062242   -0.086059   -0.770624
H      -1.573246   -1.541963    0.110583
H      -1.951210   -0.061153    0.994470
H      -0.080684   -0.422127   -2.147578
H       1.525968    0.006642   -1.565892
H       0.119744   -2.641784   -0.935856
H       1.425093   -2.408215   -2.110811
H       1.669292   -2.490755    1.827860
H       2.565728   -0.165172    2.448823
H       2.803456    0.143102    0.664519
H       0.138581   -0.546023    2.112183
