21

C       0.134085    1.448091   -0.276056
C      -0.050090   -0.045032    0.012699
C      -1.518482   -0.523875    0.111585
C      -2.247792    0.073291    1.322748
O      -2.223373   -0.205942   -1.094927
C      -1.528617   -2.046804    0.209387
C      -2.698882   -2.841050   -0.227880
N      -1.440039   -2.870169   -1.002608
H       1.196924    1.693138   -0.359384
H      -0.333936    1.730184   -1.225628
H      -0.284390    2.081628    0.512705
H       0.432797   -0.626489   -0.780572
H       0.462319   -0.306543    0.946708
H      -2.254045    1.168328    1.289552
H      -3.283585   -0.274986    1.342821
H      -1.764550   -0.225871    2.258481
H      -2.349836    0.746474   -1.127175
H      -0.929326   -2.421213    1.037683
H      -2.947951   -3.768162    0.280915
H      -3.539853   -2.300773   -0.650581
H      -1.556994   -2.253026   -1.804430
