18

O      -0.784151    0.823965    0.416897
C       0.236122    0.746427   -0.217333
C       1.394968    1.707448   -0.072518
N       2.691371    1.213086   -0.580196
C       2.953263    2.466884   -1.332234
C       3.071411    2.269474   -2.842360
C       1.620894    1.947527   -3.230458
O       0.800563    2.713668   -2.338354
C       1.472622    2.885757   -1.115025
H       0.402093   -0.048037   -0.979115
H       1.400151    2.102893    0.951284
H       3.375725    0.969915    0.125459
H       3.717364    3.121496   -0.903015
H       3.403623    3.198732   -3.317200
H       3.765774    1.468322   -3.106033
H       1.356886    2.240767   -4.249259
H       1.418494    0.875217   -3.108583
H       1.223340    3.869236   -0.716120
