20

C      -0.005744    1.534518   -0.071252
C       0.040122    0.011063   -0.096339
C      -1.334852   -0.572875    0.215035
C       0.752024   -0.729701   -1.256868
C       1.313216   -1.686205   -0.129041
C       2.346999   -0.640773    0.112069
C       2.168776   -0.097463   -1.311766
O       3.045945   -0.696958   -2.241131
N       1.046983   -0.612735    0.858979
H       0.987152    1.985575   -0.121245
H      -0.597778    1.915858   -0.910604
H      -0.476864    1.878042    0.855421
H      -2.077873   -0.202907   -0.499068
H      -1.327833   -1.665478    0.164310
H      -1.651332   -0.282321    1.221824
H       0.245642   -0.999951   -2.183052
H       1.257526   -2.743737    0.091846
H       3.251989   -0.686560    0.704954
H       2.246591    0.975474   -1.498807
H       3.071971   -1.643377   -2.053815
