15

O      -0.260816   -0.002391   -0.038788
C      -0.183194    1.184898    0.034347
C      -1.170331    2.342043   -0.089266
O      -0.897048    3.168970    1.065343
C      -0.032963    3.296389   -0.056928
C       1.028185    2.189789    0.093856
C       1.909537    2.221808    1.308813
C       3.125265    1.404220    1.394382
O       3.206240    2.807506    1.140792
H      -2.157173    2.405886   -0.530491
H       0.045615    4.262304   -0.539441
H       1.632689    2.049975   -0.809645
H       1.405217    2.499920    2.232809
H       3.486890    1.080233    2.368722
H       3.398511    0.760012    0.559749
