15

O      -0.112996    0.077405   -0.778974
C      -0.102275    1.193339   -0.307016
C       1.137844    1.873423    0.035056
C       2.170296    2.428190    0.310075
C      -1.342213    1.958724   -0.002342
C      -1.544759    3.407818    0.472704
C      -2.776779    2.921220    1.313006
C      -2.520269    1.500851    0.795084
O      -2.557769    1.534524   -0.619335
H       3.090418    2.905053    0.547559
H      -0.726492    3.767760    1.097850
H      -1.741916    4.124159   -0.327128
H      -2.617308    3.022777    2.388384
H      -3.752605    3.332378    1.045788
H      -2.686013    0.541860    1.273100
