22

C      -0.833781    0.183585    0.960816
O       0.443269    0.072627    1.563619
C       1.435563   -0.420581    0.685342
C       1.496933   -1.952236    0.577294
O       2.107690   -2.490506   -0.329903
N       0.855020   -2.603509    1.580171
C       0.852437   -4.054705    1.728375
C       1.721492   -4.485849    2.916568
C      -0.582777   -4.578301    1.846458
H      -1.213702   -0.789656    0.619125
H      -1.512195    0.585063    1.717215
H      -0.809055    0.870309    0.102652
H       1.324447   -0.019627   -0.330218
H       2.402147   -0.079334    1.072467
H       0.438116   -2.025969    2.296370
H       1.301707   -4.429663    0.804495
H       1.323967   -4.090059    3.858766
H       1.749839   -5.577008    2.998421
H       2.746088   -4.123191    2.798513
H      -1.074684   -4.181400    2.742894
H      -1.177187   -4.289087    0.975326
H      -0.589939   -5.670030    1.921468
