17

C       0.063059    1.438317    0.038079
N      -0.008757   -0.009781    0.017641
C      -1.166781   -0.693772   -0.066712
C      -1.197940   -2.057743   -0.088502
C       0.025288   -2.800557   -0.018736
N       0.233908   -4.078521   -0.050556
C       1.220759   -1.929022    0.096788
N       2.400898   -2.584527    0.223279
N       1.207604   -0.622673    0.097549
H       0.663009    1.798496   -0.803277
H      -0.944453    1.850464   -0.034424
H       0.528913    1.781418    0.967015
H      -2.064037   -0.088353   -0.119193
H      -2.147423   -2.573448   -0.165178
H      -0.646532   -4.586647   -0.141072
H       2.351068   -3.574070    0.025906
H       3.257584   -2.078055    0.082422
