17

N       0.379707    1.469690    0.229086
C       0.016243    0.103162    0.189963
C      -1.127525   -0.596467    0.484897
C      -0.889252   -1.982165    0.198386
C      -1.771821   -3.176464    0.369878
O      -1.499560   -4.179527   -0.633439
C       0.407804   -2.061717   -0.263840
O       1.133941   -3.123239   -0.682652
N       0.952269   -0.814159   -0.273775
H      -0.372156    2.058153   -0.110323
H       0.604719    1.781176    1.169671
H      -2.038769   -0.172533    0.881495
H      -1.597008   -3.701036    1.317525
H      -2.833101   -2.891550    0.353688
H      -1.708544   -3.777795   -1.485130
H       0.498908   -3.858636   -0.730088
H       1.856791   -0.568998   -0.639041
