17

C       0.113733    1.438947    0.029384
C       0.042849   -0.014952   -0.002829
C      -0.008837   -1.217821   -0.013213
C      -0.102390   -2.676331   -0.047666
C      -1.562973   -3.165296   -0.021285
N       0.617067   -3.191481   -1.218366
C       1.240346   -4.396300   -1.207961
O       1.242263   -5.167037   -0.269709
H       1.151354    1.787989   -0.007938
H      -0.419233    1.884346   -0.817709
H      -0.335636    1.833349    0.947249
H       0.411277   -3.101993    0.822115
H      -2.108374   -2.798627   -0.895369
H      -1.578195   -4.257737   -0.019598
H      -2.066343   -2.801797    0.878677
H       0.680060   -2.605209   -2.035051
H       1.757143   -4.604511   -2.165855
