19

O      -0.230751    1.389843   -0.083712
C       0.004452    0.010315   -0.007265
C       0.612251   -0.536535   -1.311753
C      -0.286838   -0.262191   -2.523827
C       0.319629   -0.774909   -3.806670
C       0.216399   -0.042051   -5.074151
O       1.431985   -0.037317   -4.323862
C       0.908726   -0.304795    1.166206
O       1.344655    0.561393    1.885410
H       0.273558    1.782149    0.646664
H      -0.945425   -0.527049    0.178845
H       1.587634   -0.064605   -1.475886
H       0.782827   -1.616221   -1.202663
H      -1.266447   -0.737423   -2.377112
H      -0.455817    0.815532   -2.602775
H       0.454057   -1.857906   -3.861735
H       0.251278   -0.581506   -6.019774
H      -0.319403    0.906032   -5.100267
H       1.153819   -1.375004    1.325953
