14

N       0.047946    1.016537   -0.896940
C       0.005345    0.018780   -0.125140
O       1.189400   -0.404133    0.448912
C       1.473256   -1.425201    1.306139
N       0.768290   -2.315546    1.857530
C      -0.596921   -2.493848    1.715980
C      -1.498878   -1.805385    0.992247
C      -1.330386   -0.650964    0.124435
N      -2.372043   -0.183706   -0.454651
H       0.997039    1.378857   -0.985463
H       2.542762   -1.388426    1.497423
H      -0.963213   -3.334791    2.298109
H      -2.531783   -2.134709    1.037317
H      -2.103310    0.621356   -1.028801
