21

C       0.001138    1.407824   -0.033234
C       0.080019   -0.116015   -0.124255
O       0.579292   -0.752293    1.035308
C       1.973773   -0.718351    1.216448
C       2.627389    0.454290    2.002436
C       3.524536   -0.598969    2.709017
C       2.500008   -1.690239    2.291001
C      -1.288133   -0.743038   -0.382543
O      -2.152180   -0.235602   -1.047265
H       0.996198    1.858492   -0.026023
H      -0.556724    1.789637   -0.891878
H      -0.524226    1.701845    0.879839
H       0.702902   -0.395776   -0.995840
H       2.480428   -0.873290    0.251308
H       3.110537    1.255013    1.437347
H       1.899854    0.888952    2.693495
H       4.485544   -0.724055    2.202932
H       3.709549   -0.466814    3.776232
H       1.734474   -1.834804    3.058514
H       2.868820   -2.665243    1.965513
H      -1.408351   -1.739602    0.095820
