19

C      -0.007636    1.497290    0.022581
C       0.045262   -0.009621   -0.030273
C       0.437386   -0.716744   -1.334273
C       0.354534   -2.213514   -0.915224
C      -0.065034   -2.045770    0.531359
O      -0.247755   -3.196088    1.267984
C       0.658030   -0.806841    1.160478
O      -0.525672   -0.545643    2.004853
C      -1.068017   -0.850043    0.664868
H       0.968853    1.934323   -0.214393
H      -0.728986    1.891814   -0.701775
H      -0.302758    1.828525    1.021757
H      -0.252129   -0.469274   -2.147711
H       1.440988   -0.426884   -1.661562
H      -0.386012   -2.780699   -1.486081
H       1.310380   -2.738229   -0.998978
H      -0.509003   -2.899594    2.152081
H       1.641524   -0.724629    1.627407
H      -2.152017   -0.819583    0.538152
