25

C       0.143530    1.502984   -0.160387
C       0.021391   -0.014277    0.016646
C      -1.421866   -0.514668    0.065720
O      -2.126763    0.046953    1.172578
C      -2.252114   -0.458159   -1.254863
C      -2.737606   -1.923742   -1.002027
C      -4.152925   -1.977901   -0.422743
C      -2.591925   -2.874716   -2.186356
C      -1.637991   -2.047925    0.103195
H       1.191573    1.809274   -0.225617
H      -0.357520    1.842317   -1.074256
H      -0.295889    2.040061    0.687381
H       0.539716   -0.522514   -0.805519
H       0.521198   -0.320152    0.944272
H      -2.252137    0.985616    0.996902
H      -3.026712    0.313757   -1.300432
H      -1.619977   -0.373610   -2.144506
H      -4.896038   -1.693736   -1.177633
H      -4.395293   -2.990896   -0.080175
H      -4.250142   -1.298930    0.428263
H      -1.580339   -2.840235   -2.605860
H      -2.794360   -3.910281   -1.887830
H      -3.294895   -2.618432   -2.988061
H      -0.757034   -2.600873   -0.235628
H      -1.955163   -2.436833    1.073566
