15

C      -0.115804    1.364612   -0.280178
N      -0.023602    0.013655    0.234950
C      -1.041234   -1.033063    0.210825
C      -0.954756   -1.849682   -1.035341
C       0.063355   -2.082368    0.098179
C       0.210816   -3.322169    0.775839
N       0.342547   -4.332235    1.325021
C       1.034973   -0.877522    0.084658
O       2.212853   -0.719792   -0.040415
H       0.899301    1.762196   -0.346654
H      -0.575680    1.395963   -1.276761
H      -0.696786    1.997317    0.396855
H      -1.870418   -1.032403    0.905772
H      -1.679660   -2.649375   -1.154165
H      -0.607716   -1.398790   -1.959781
