21

C       0.120532    1.519619   -0.172714
C       0.079671   -0.006831   -0.061971
C       0.693634   -0.533652    1.226582
C       0.687688   -2.070821    1.392320
C       1.993710   -2.346233    2.145423
O       1.948781   -3.053239    3.346822
C       3.275989   -2.313793    1.339155
C       2.776268   -1.076027    2.059238
O       2.082195   -0.145283    1.278198
H       1.150918    1.880592   -0.123106
H      -0.318148    1.858241   -1.116183
H      -0.439136    1.989579    0.643704
H      -0.957475   -0.361971   -0.114371
H       0.613109   -0.460364   -0.906913
H       0.179000   -0.080430    2.089989
H      -0.162497   -2.410907    1.988365
H       0.650603   -2.574609    0.419377
H       1.978007   -3.993688    3.139678
H       4.133042   -2.815401    1.777542
H       3.221402   -2.325091    0.255454
H       3.326956   -0.671725    2.902595
