17

O      -0.379263    0.347359    0.725858
C      -0.144341    1.369518    0.167081
O      -1.008209    2.165377   -0.536805
C       0.027910    3.180999   -0.765853
C      -0.305161    4.487243   -0.065537
O      -0.067739    4.423578    1.324354
C       1.308583    4.215169    1.596422
C       1.756129    2.790257    1.235984
C       1.068916    2.279921   -0.046766
H       0.170815    3.321871   -1.839926
H       0.288526    5.298790   -0.520454
H      -1.365767    4.717220   -0.201480
H       1.907591    4.955494    1.040333
H       1.449173    4.405704    2.663213
H       2.844586    2.770575    1.127707
H       1.506542    2.102826    2.050263
H       1.779655    1.818012   -0.734755
