20

C      -0.066977    1.453308   -0.212277
N       0.016750    0.022379    0.023709
C      -1.249377   -0.642480    0.279518
C      -1.145612   -2.113444    0.519885
C      -0.001882   -2.792275    0.508438
C       0.075229   -4.273039    0.753852
C       1.297018   -2.087044    0.242097
C       1.242706   -0.585203   -0.009316
O       2.275141    0.027418   -0.229914
H       0.939548    1.828428   -0.388105
H      -0.696931    1.665229   -1.085623
H      -0.504070    1.963511    0.655536
H      -1.735638   -0.160252    1.144915
H      -1.927925   -0.453868   -0.570106
H      -2.088434   -2.618791    0.711889
H      -0.912258   -4.704272    0.937637
H       0.522176   -4.791982   -0.103764
H       0.713556   -4.496491    1.618254
H       1.997563   -2.236301    1.075083
H       1.806894   -2.527803   -0.625479
