16

O       0.496849    0.149635    0.368366
C       0.530699    1.340082    0.366838
O       0.798949    2.051945   -0.755599
C       0.886759    3.454972   -0.619659
C       2.140114    3.900555    0.132535
O       2.826528    3.110134    0.742226
C       2.448667    5.359815    0.100540
C       2.774146    5.996243    1.422433
N       3.820809    5.765625    0.442757
H       0.321559    1.979607    1.243937
H       0.892125    3.865689   -1.633094
H       0.007605    3.874798   -0.106385
H       1.961505    5.954890   -0.666482
H       2.494836    7.034220    1.577372
H       2.726648    5.355290    2.298383
H       4.327693    4.916522    0.696520
