18

C      -0.016674    1.555278    0.039000
O       1.315875    2.088779    0.039965
C       2.296876    1.067064    0.002346
C       2.073785    0.134981    1.206598
O       0.765799   -0.449866    1.123512
C       0.042754    0.029279   -0.022329
C       0.803080   -0.426256   -1.263419
N       1.153392    0.628744   -2.238968
C       2.149197    0.193362   -1.247638
H      -0.519962    1.858376    0.965816
H      -0.558523    1.962390   -0.820403
H       3.268157    1.564327    0.061772
H       2.824956   -0.666818    1.231716
H       2.148218    0.710808    2.137396
H      -0.957089   -0.403452    0.056323
H       0.659914   -1.446426   -1.604497
H       1.365142    0.194372   -3.133790
H       3.021155   -0.366058   -1.574412
