18

C       0.307896    0.719472   -0.620776
N      -0.276243    0.193658    0.613855
C       0.654234   -0.476589    1.505084
C       0.692373   -1.991294    1.233941
O       1.294138   -2.202019   -0.039870
C       1.074081   -3.403331   -0.633893
N       1.563253   -3.623158   -1.771763
C       1.444324   -2.700275    2.288109
N       2.022205   -3.251286    3.123012
H       0.668954   -0.102710   -1.240828
H      -0.465395    1.254818   -1.178638
H       1.151757    1.409351   -0.448881
H      -0.734680    0.943283    1.115488
H       1.685627   -0.093684    1.439543
H       0.322999   -0.349449    2.540387
H      -0.340588   -2.361156    1.229391
H       0.462169   -4.086511   -0.031391
H       1.312484   -4.557101   -2.089115
