21

C      -0.587410    1.338020   -0.060878
C       0.121081   -0.008758   -0.094189
C       1.518642   -0.081149   -0.794569
C       1.988354   -0.932668    0.383126
O       2.884851   -1.719082    0.550369
C       0.751477   -0.597804    1.229025
C       1.039184    0.410897    2.346184
C       0.110662   -1.877936    1.791182
O       0.969563   -2.528836    2.705154
H       0.055687    2.126623    0.341906
H      -0.886440    1.638827   -1.070569
H      -1.493313    1.299038    0.553349
H      -0.545299   -0.759353   -0.533434
H       1.595025   -0.529524   -1.788044
H       2.025847    0.890732   -0.811431
H       1.646334    1.254636    2.004528
H       0.102597    0.810650    2.749903
H       1.571933   -0.092645    3.155816
H      -0.809835   -1.635870    2.336372
H      -0.167080   -2.543645    0.957297
H       1.804316   -2.679375    2.239686
