16

N       0.483758    0.137575   -0.760128
C      -0.267705    0.228197    0.368697
O      -0.151804    1.119305    1.187374
C      -1.355586   -0.855340    0.509101
C      -0.947061   -2.258126    0.166348
N      -0.569376   -2.584941   -1.072535
N      -0.263941   -3.895417   -1.005319
C      -0.445985   -4.416179    0.229474
C      -0.887749   -3.380222    1.024385
H       1.233014    0.798554   -0.880833
H       0.430254   -0.682897   -1.345930
H      -1.704789   -0.804160    1.540628
H      -2.189804   -0.547826   -0.133779
H       0.039126   -4.370116   -1.838508
H      -0.254976   -5.456562    0.439590
H      -1.132990   -3.420936    2.073053
