16

O      -0.177559    1.421628    0.007763
C      -0.072514    0.043039    0.026546
C      -0.330712   -0.803159   -1.184240
C      -1.213521   -0.979797    0.031987
C      -0.461445   -1.777202    1.116566
O       0.469297   -2.798667    0.664756
C       1.595341   -1.891741    0.797857
C       0.658796   -0.722500    1.160075
H       0.474307    1.769884   -0.610442
H      -0.811512   -0.259049   -1.991279
H       0.328245   -1.604879   -1.500000
H      -2.285942   -0.836561   -0.017186
H      -1.042745   -2.091577    1.985802
H       2.257093   -2.205351    1.614518
H       2.177853   -1.809807   -0.127713
H       0.861117   -0.121981    2.044983
