16

C      -0.192976    1.614872   -0.061263
C      -0.126082    0.122110    0.029561
C      -0.052295   -0.976626   -0.935624
O       1.377483   -1.342879   -0.647663
C       0.985729   -0.832847    0.595409
N       0.787289   -1.575712    1.603704
C      -0.701421   -1.500856    1.730620
C      -1.116453   -0.933792    0.345301
O      -2.441536   -0.734675    0.020819
H       0.672566    2.015774   -0.597360
H      -1.099181    1.917081   -0.594497
H      -0.219793    2.069867    0.933929
H      -0.363372   -1.085720   -1.968491
H      -1.036686   -2.529234    1.907519
H      -1.093908   -0.869787    2.542182
H      -2.883094   -1.590962   -0.015531
