18

O       0.401539    0.270636    1.272875
C       0.218991    1.178855    0.487832
N       1.159203    1.688374   -0.348775
C       2.515273    1.134641   -0.428334
C       2.933875    1.056173   -1.828887
C       3.282871    1.034613   -2.978505
C       3.517056    1.913368    0.414427
C       3.538687    1.697846    1.905229
C       4.669292    1.180815    1.051039
H      -0.755946    1.691447    0.373839
H       0.902401    2.421079   -0.990959
H       2.433573    0.124130   -0.010718
H       3.595331    0.991296   -3.992733
H       3.712735    2.917581    0.049871
H       3.723834    2.558054    2.538686
H       2.833887    0.980954    2.310964
H       4.737141    0.109421    0.893037
H       5.629101    1.682476    1.096289
