20

C      -0.310005    1.504218   -0.066149
C       0.118250    0.056021   -0.018218
O       1.404278   -0.163219   -0.716325
C       1.955031   -0.731367    0.400445
N       3.067201   -1.290186    0.589413
C       0.734056   -0.556347    1.278457
C       0.907445    0.346525    2.496932
C       0.185805   -1.940143    1.679757
O       1.086303   -2.618832    2.525291
H       0.453652    2.165397    0.349794
H      -0.497890    1.804553   -1.101248
H      -1.236950    1.642138    0.500130
H      -0.637064   -0.589567   -0.479344
H       3.644904   -1.295074   -0.252582
H       1.460760    1.259662    2.265160
H      -0.068295    0.627930    2.907878
H       1.454993   -0.200734    3.267067
H      -0.752241   -1.828406    2.236429
H      -0.034923   -2.522366    0.769656
H       1.948609   -2.613014    2.081967
