23

C       0.008249    1.556031   -0.136715
C      -0.023882    0.030665   -0.037225
C       1.009523   -0.625383   -1.016705
C       2.017755   -0.748596    0.156657
C       0.858687   -0.480668    1.153286
C      -1.423119   -0.559059   -0.095159
O      -1.330029   -1.964550    0.005064
C      -2.616671    0.105347    0.542150
C      -2.511342    0.004284   -0.972983
H       1.042884    1.909422   -0.088369
H      -0.410530    1.915898   -1.082270
H      -0.533450    2.033834    0.686218
H       0.664117   -1.598597   -1.367256
H       1.309858   -0.020913   -1.877477
H       2.538388   -1.703530    0.256530
H       2.767188    0.047560    0.155655
H       1.043136    0.234987    1.959716
H       0.459365   -1.402152    1.578429
H      -2.215586   -2.336869   -0.031741
H      -3.331274   -0.539409    1.045531
H      -2.512972    1.082093    1.000078
H      -2.336575    0.912844   -1.537307
H      -3.155685   -0.707884   -1.480328
