18

C      -0.047464    1.581098    0.091548
C       1.458611    1.227333   -0.010307
C       1.179913    0.082321    1.030565
C       0.005230    0.014464    0.011122
C      -1.135255   -0.890481   -0.356378
N      -1.474465   -0.684050   -1.774915
C      -0.707172   -0.042459   -2.550280
O       0.520003    0.531784   -2.335643
C       1.075339    0.172173   -1.076381
H      -0.386421    1.996524    1.043653
H      -0.486128    2.108880   -0.754978
H       2.307609    1.910573   -0.018537
H       1.874708   -0.762669    1.039447
H       0.938511    0.414621    2.042133
H      -0.874120   -1.947079   -0.211439
H      -2.040677   -0.708062    0.233104
H      -1.001978    0.131068   -3.583759
H       1.776370   -0.655458   -1.225281
