29

C      -0.051692    1.595759    0.153322
C      -0.143283    0.088935   -0.127252
C       0.723262   -0.458429   -1.300876
C       0.123825    0.050189   -2.630884
C       2.157210    0.104420   -1.187705
C       0.742893   -2.050006   -1.266927
C      -0.675906   -2.634685   -1.084508
C       1.311593   -2.634484   -2.579575
C       1.618613   -2.579973   -0.109119
H       0.948010    1.894345    0.481421
H      -0.309274    2.200721   -0.721773
H      -0.750827    1.868427    0.950579
H       0.122277   -0.437929    0.796295
H      -1.192357   -0.157035   -0.324059
H      -0.000610    1.136767   -2.604970
H       0.772988   -0.174326   -3.481459
H      -0.859610   -0.384522   -2.834518
H       2.580026   -0.037672   -0.188937
H       2.834658   -0.364011   -1.907436
H       2.164789    1.178023   -1.396398
H      -1.381022   -2.255239   -1.830314
H      -0.642727   -3.723992   -1.195436
H      -1.086960   -2.423119   -0.094062
H       2.293201   -2.221934   -2.831644
H       1.433046   -3.718336   -2.478180
H       0.645336   -2.460897   -3.428841
H       1.325711   -2.167930    0.861083
H       1.520565   -3.668834   -0.040254
H       2.678387   -2.358744   -0.261830
