18

N      -0.064559   -1.155541    0.060962
C      -0.061054   -0.000301    0.089864
C      -0.017665    1.463038    0.119652
C       1.400422    1.993590   -0.041928
C       2.405147    1.818456    1.134066
C       2.739999    3.343037    1.078554
C       1.776175    3.505637   -0.117942
O       2.421941    3.318141   -1.391082
C       2.058101    1.919008   -1.434191
H      -0.664381    1.847229   -0.678263
H      -0.447824    1.802766    1.069376
H       1.926692    1.510878    2.067170
H       3.231118    1.131998    0.934799
H       2.425453    3.889011    1.971857
H       3.772423    3.608794    0.844490
H       1.068980    4.340440   -0.127080
H       2.928376    1.259177   -1.529785
H       1.361774    1.713006   -2.258150
