21

C       0.017829    1.557642   -0.041588
C       0.027949    0.027029   -0.059820
C       0.735026   -0.556533   -1.262984
C       0.861035   -2.095079   -1.365306
C       2.049814   -2.220834   -2.364406
C       2.337148   -0.729886   -2.645584
C       1.173473   -0.136961   -3.461330
O       0.126060   -0.096074   -2.483540
O       2.085030   -0.121835   -1.370636
H       1.037396    1.950614   -0.016718
H      -0.472869    1.947476   -0.936466
H      -0.516585    1.929475    0.837382
H       0.517259   -0.367220    0.837727
H      -0.996313   -0.362733   -0.059095
H       1.095553   -2.535863   -0.392972
H      -0.065549   -2.537746   -1.735015
H       2.917158   -2.695110   -1.900148
H       1.800357   -2.778759   -3.270370
H       3.338277   -0.482862   -2.996267
H       1.390881    0.877327   -3.817120
H       0.880398   -0.762153   -4.312459
