18

O      -0.031257    0.891275    1.510923
C      -0.013829    1.415366    0.413441
C      -1.304620    1.581816   -0.380637
C      -1.421510    2.913352   -1.129189
N      -0.783093    2.834269   -2.442725
C       0.076292    3.942818   -2.840412
C       0.653642    2.600573   -2.508770
C       1.549807    2.400086   -1.344820
C       1.280432    1.896026   -0.132685
H      -1.380773    0.764663   -1.109604
H      -2.121568    1.454277    0.333542
H      -2.477204    3.148908   -1.300560
H      -1.010399    3.725839   -0.509753
H       0.003044    4.268478   -3.874506
H       0.235995    4.740056   -2.115860
H       0.946340    1.983827   -3.360862
H       2.589658    2.649309   -1.557952
H       2.092187    1.782277    0.580630
