17

C      -0.055101   -1.237334    0.009075
C      -0.023453   -0.036363    0.021963
C      -0.000132    1.420523    0.033133
C      -0.738823    2.055282    1.222731
N      -0.174502    1.716429    2.535729
C       0.204610    2.989719    1.885992
C       1.513085    2.934504    1.131809
C       2.260658    1.650455    1.132118
N       1.383863    1.986546   -0.000025
H      -0.079538   -2.298774   -0.001826
H      -0.488240    1.784464   -0.880657
H      -1.802629    2.251054    1.128632
H      -0.866292    1.887659    3.261244
H      -0.118472    3.929359    2.320051
H       2.004881    3.879792    0.920600
H       3.317088    1.637697    0.878099
H       1.934551    0.894686    1.837615
