20

O      -0.154436    1.470677   -0.026540
C      -0.011917    0.071695    0.013161
C       0.311661   -0.619700    1.367696
C      -0.760922   -1.689951    1.018775
C      -1.655564   -2.206087    2.137360
C      -2.758982   -3.146426    1.608447
C      -3.627371   -3.651314    2.669303
N      -4.302732   -4.041052    3.522273
C      -1.350532   -0.691157   -0.021709
H       0.722323    1.867901   -0.024934
H       0.664312   -0.283697   -0.777786
H       1.334979   -0.953693    1.556261
H      -0.020684    0.017146    2.193883
H      -0.292484   -2.536781    0.502920
H      -1.055792   -2.741350    2.882570
H      -2.123687   -1.362503    2.657497
H      -3.379113   -2.623650    0.871142
H      -2.310601   -4.002724    1.090671
H      -2.132060   -0.069350    0.427487
H      -1.701877   -1.071650   -0.983201
