21

O       0.143260   -0.161052    0.004547
C       0.092639    1.029056   -0.177361
C       1.274171    1.963398   -0.094824
C       1.305834    3.035520   -1.236827
C       1.420246    4.375044   -0.473431
C       0.055261    4.677449    0.188189
C      -0.009436    3.638880    1.355070
C       1.310287    2.846109    1.193785
C       2.274479    3.964171    0.744189
H      -0.875166    1.520663   -0.436304
H       2.169313    1.335657   -0.113061
H       2.164857    2.866999   -1.891853
H       0.408935    2.999759   -1.865965
H       1.806754    5.193239   -1.083838
H       0.022668    5.701921    0.570423
H      -0.772809    4.570605   -0.519046
H      -0.016427    4.142299    2.326379
H      -0.902848    3.011186    1.321729
H       1.597091    2.279068    2.080716
H       3.270053    3.597821    0.475552
H       2.377953    4.759309    1.489637
