18

O       0.186984    1.357575   -0.214234
C       0.031287   -0.025588   -0.007571
C       0.313569   -0.634397    1.371546
C      -0.742605   -0.254090    2.379119
C      -1.065387   -1.312365    1.365116
C      -1.389973   -0.641527    0.045081
C      -2.664912    0.033961   -0.370943
C      -2.160180   -1.183656   -1.115643
H      -0.257328    1.814313    0.508247
H       0.636774   -0.505687   -0.782064
H       1.266649   -1.040643    1.687580
H      -0.546758   -0.599580    3.389239
H      -1.252809    0.706579    2.337620
H      -1.310183   -2.332331    1.634254
H      -3.541101   -0.076374    0.260033
H      -2.574954    0.998147   -0.861744
H      -1.750862   -1.044165   -2.111752
H      -2.696920   -2.117796   -0.981774
