29

C       0.072387    1.574802   -0.004450
C       0.065359    0.040507    0.040301
C       0.925116   -0.463796    1.208414
C      -1.381736   -0.489405    0.094810
C      -1.505040   -2.011255   -0.060879
C      -2.939160   -2.599100   -0.114031
C      -3.715048   -2.061567   -1.331338
C      -2.816648   -4.129356   -0.244548
C      -3.715000   -2.272593    1.175772
H       1.092147    1.966146   -0.084539
H      -0.500640    1.953006   -0.857729
H      -0.372063    1.994768    0.906170
H       0.517830   -0.324467   -0.893724
H       1.014189   -1.553782    1.217144
H       1.938259   -0.051600    1.153477
H       0.494780   -0.155868    2.169457
H      -1.833943   -0.168580    1.042959
H      -1.954016    0.006478   -0.698742
H      -0.979669   -2.312047   -0.978795
H      -0.974545   -2.503229    0.764146
H      -3.177654   -2.264300   -2.264768
H      -4.698357   -2.539468   -1.404451
H      -3.881842   -0.981995   -1.268279
H      -2.276258   -4.557614    0.607104
H      -3.804399   -4.601884   -0.284841
H      -2.276254   -4.407413   -1.156354
H      -3.884221   -1.197546    1.289872
H      -4.696035   -2.760364    1.171416
H      -3.173907   -2.623025    2.062159
