22

C      -1.175515    2.228514   -0.416608
C      -0.900730    0.965186   -1.229728
N      -1.637487   -0.164235   -0.665214
C      -1.370075   -1.526258   -1.082533
C      -0.350407   -1.913094   -2.132494
C      -0.979496   -1.064026    0.309083
C       0.462495   -0.928953    0.748355
C      -1.928821   -1.464959    1.396697
O      -1.600579   -1.861506    2.487150
H      -0.675121    3.091723   -0.866324
H      -2.249361    2.428965   -0.371818
H      -0.809779    2.123429    0.609850
H      -1.261919    1.098923   -2.256357
H       0.183886    0.798426   -1.294685
H      -2.280704   -2.124423   -1.152681
H       0.569280   -1.328812   -2.084568
H      -0.085867   -2.970166   -2.026597
H      -0.778031   -1.779441   -3.132260
H       1.170842   -0.921039   -0.079848
H       0.607765   -0.013730    1.331929
H       0.705555   -1.767666    1.405296
H      -2.996760   -1.365449    1.100385
