23

C      -0.009253    1.527590    0.108220
C      -0.095988    0.009721   -0.079388
C       0.786704   -0.531631   -1.208327
C       2.306717   -0.303599   -1.049784
C       2.944814   -1.313475   -2.026097
C       2.035964   -2.551209   -1.961012
C       2.104111   -3.372691   -0.658059
O       0.885341   -2.783742   -0.159163
C       0.679247   -2.049428   -1.393595
H       1.002308    1.843618    0.383406
H      -0.283273    2.059561   -0.810256
H      -0.685815    1.864141    0.900090
H       0.179971   -0.501902    0.849257
H      -1.138447   -0.269447   -0.281920
H       0.468434   -0.076985   -2.159843
H       2.610258    0.726064   -1.255234
H       2.602757   -0.529189   -0.018109
H       2.933615   -0.905734   -3.043850
H       3.987812   -1.543549   -1.784670
H       2.024152   -3.135963   -2.881428
H       2.005416   -4.458448   -0.786116
H       2.960755   -3.169785   -0.001678
H      -0.247225   -2.366338   -1.886600
