21

C      -0.180652    1.368495    0.008008
O       0.110103   -0.014294   -0.094636
C       0.629938   -0.597943    1.067350
C      -0.409114   -0.768495    2.176346
O      -1.561826   -0.432309    2.077228
C       1.263605   -1.961396    0.677042
C       0.200794   -2.915924    0.119596
C       2.394798   -1.741962   -0.332740
O       1.793075   -2.453642    1.913612
H       0.709869    1.938654    0.314690
H      -0.483036    1.699489   -0.988136
H      -0.994295    1.560580    0.714226
H       1.441656    0.017455    1.500317
H      -0.007213   -1.224110    3.103957
H      -0.287313   -2.478656   -0.754322
H       0.661998   -3.863454   -0.181280
H      -0.564398   -3.131660    0.870531
H       3.173121   -1.108678    0.102765
H       2.847499   -2.702124   -0.605819
H       2.019719   -1.266900   -1.241358
H       2.166870   -3.324965    1.746758
