21

C      -0.257669    1.189040    0.157918
O      -0.183306   -0.174076   -0.207205
C       0.733858   -0.498153   -1.203326
C       1.049966   -2.004640   -1.199675
O       2.475472   -1.767897   -1.127743
C       2.295103   -0.341162   -1.159430
C       2.262656    0.222273   -2.602883
C       0.696684    0.203188   -2.594657
C      -0.058510   -0.433501   -3.753127
H       0.734488    1.601199    0.391065
H      -0.721512    1.810366   -0.620024
H      -0.878565    1.239902    1.055266
H       0.674351   -2.499233   -0.297262
H       0.765579   -2.585712   -2.083913
H       2.882398    0.176646   -0.397666
H       2.702367    1.214813   -2.726860
H       2.726497   -0.464606   -3.314935
H       0.332476    1.226002   -2.455550
H       0.316280   -1.436585   -3.981646
H      -1.127833   -0.517044   -3.529607
H       0.044738    0.167755   -4.662879
