21

C      -0.199765    1.616900   -0.110855
C      -0.044835    0.088519   -0.004278
C       0.640441   -0.538348   -1.235024
C       1.830660   -1.108836   -0.988474
C       2.154849   -0.878971    0.451728
C       2.604493   -1.501879    1.810344
C       1.906063   -0.126471    2.158129
C       2.731347    0.479532    1.001643
C       0.806405   -0.562021    1.123301
H       0.735931    2.125923   -0.350531
H      -0.914671    1.866593   -0.902788
H      -0.584713    2.031576    0.826211
H      -1.065041   -0.308233    0.077743
H       0.189041   -0.466849   -2.220927
H       2.478652   -1.550589   -1.736822
H       2.088541   -2.411435    2.129148
H       3.678243   -1.553174    2.011207
H       1.769691    0.285139    3.159912
H       3.815019    0.520008    1.145711
H       2.365944    1.396172    0.543193
H       0.280726   -1.465391    1.452419
