20

C       0.090154    1.331181   -0.340119
C      -0.024412   -0.039032    0.338718
C      -1.395671   -0.657539    0.170554
C      -1.888306   -1.272578   -1.110978
O      -0.901485   -1.701252   -2.038898
C      -0.202693   -2.696890   -1.408341
C       0.923250   -3.277701   -2.190248
N      -0.576443   -3.027595   -0.233989
C      -1.672475   -2.155924    0.110436
H       1.080643    1.768590   -0.180275
H      -0.072069    1.245160   -1.419143
H      -0.651760    2.034552    0.053837
H       0.743081   -0.711534   -0.054840
H       0.184557    0.056416    1.411317
H      -2.190268   -0.119318    0.684524
H      -2.823476   -1.006669   -1.587602
H       1.700902   -2.526633   -2.362691
H       1.349698   -4.117779   -1.642994
H       0.571103   -3.612713   -3.170719
H      -2.457563   -2.585387    0.721364
