16

C      -0.031915    1.475997   -0.142769
C      -0.001663    0.001379    0.155643
N      -0.102559   -0.578337    1.282959
O       0.156563   -0.684095   -1.000689
C       0.224110   -2.047193   -1.078592
C       0.383046   -2.808062   -2.206055
N       0.401396   -4.138853   -1.857393
C       0.256614   -4.168430   -0.552074
N       0.143164   -2.916084   -0.020791
H       0.897074    1.778243   -0.635135
H      -0.852560    1.703118   -0.829582
H      -0.158471    2.055309    0.772643
H      -0.215241    0.102451    2.028645
H       0.482687   -2.472899   -3.225845
H       0.225969   -5.054527    0.063386
H       0.022963   -2.593989    0.930336
