21

C      -0.155732    1.558116    0.018702
C      -0.027627    0.033746   -0.035531
C       0.828721   -0.440439   -1.210411
N       0.922039   -1.887977   -1.260518
C       1.731568   -2.610207   -0.255271
C       2.169092   -3.598227   -1.361978
C       1.696221   -2.498866   -2.355764
C       0.923782   -2.893978   -3.533640
N       0.321029   -3.213933   -4.466452
H       0.824401    2.037716    0.116925
H      -0.625962    1.948931   -0.890296
H      -0.766318    1.872727    0.869969
H       0.411368   -0.331384    0.901949
H      -1.016788   -0.430602   -0.116221
H       0.378819   -0.104711   -2.153445
H       1.833257    0.026355   -1.150581
H       2.577309   -2.014428    0.126086
H       1.166714   -3.007941    0.592037
H       3.221284   -3.874355   -1.412061
H       1.544489   -4.489984   -1.409525
H       2.543358   -1.875689   -2.688922
