19

O      -0.087497    1.383271    0.046653
C       0.016494   -0.016642   -0.005913
C      -0.430340   -0.714904   -1.265503
C      -1.295516   -0.742449   -0.015979
C      -1.412308   -1.988006    0.863791
C      -0.727164   -1.783800    2.212941
O       0.496545   -2.496053    2.435382
C       0.565124   -1.080727    2.219391
C       1.115383   -0.623541    0.872136
H       0.642762    1.753077   -0.462185
H      -0.767898   -0.090268   -2.085455
H       0.075350   -1.629541   -1.562143
H      -2.166442   -0.096292   -0.044814
H      -2.464980   -2.245039    1.009517
H      -0.942725   -2.850304    0.378945
H      -1.367788   -1.723558    3.091671
H       0.858089   -0.511263    3.099813
H       1.565078   -1.493079    0.383166
H       1.907131    0.118280    1.011084
