19

C      -0.040564    1.548573    0.020052
C       1.399742    2.128336    0.008915
C       2.427172    0.959186   -0.030957
C       2.126216    0.055045    1.154603
C       0.887160   -0.443715    1.164175
C       0.028034   -0.006534   -0.012417
C       0.793661   -0.422042   -1.282018
O       1.154628    0.615626   -2.209529
C       2.146091    0.122346   -1.292468
H      -0.582741    1.853334    0.919160
H      -0.601245    1.903920   -0.847106
H       1.546307    2.768363   -0.863715
H       1.591508    2.728535    0.902345
H       3.451595    1.337265   -0.018182
H       2.859206   -0.118239    1.934510
H       0.489065   -1.072299    1.952818
H      -0.972366   -0.443504    0.016000
H       0.556452   -1.380606   -1.737836
H       2.975128   -0.407026   -1.756521
