20

C      -0.162287    1.464917   -0.185597
N       0.106104    0.044246   -0.023137
C       1.437204   -0.507802   -0.150192
C       2.536973    0.336651    0.468369
C       3.112434   -0.390339    1.654812
C       1.790850    0.320267    1.816635
C       1.604104    1.415022    2.832390
O       1.514973    0.924623    4.166545
C       0.695031   -0.525284    1.174421
H       0.634436    2.128346    0.175941
H      -0.317599    1.667757   -1.250210
H      -1.088067    1.714210    0.342876
H       1.591325   -1.325649   -0.846481
H       3.045247    1.175343    0.006401
H       3.153859   -1.476301    1.654825
H       3.958443    0.085368    2.143748
H       2.475091    2.079759    2.824751
H       0.724554    2.026991    2.584116
H       0.739752    0.356377    4.217492
H       0.181038   -1.360133    1.641509
