25

C      -0.567422    1.351328    0.017642
C      -0.070483   -0.077929    0.018771
C      -0.582463   -1.003837    1.102428
C       0.871975   -0.594686    1.087289
C       1.847654   -1.569805    0.449283
C       1.165076   -1.976778   -0.875548
C       0.313325   -0.751610   -1.318994
C      -0.913096   -1.180753   -2.136897
C       1.184364    0.198719   -2.164783
H       0.175605    2.047044   -0.385214
H      -1.481696    1.459654   -0.578522
H      -0.804251    1.677997    1.035136
H      -1.214430   -0.555592    1.862207
H      -0.848983   -2.029742    0.869521
H       1.228419    0.060553    1.876038
H       2.801255   -1.063811    0.256996
H       2.069452   -2.436870    1.081738
H       1.885075   -2.268470   -1.645850
H       0.516597   -2.843882   -0.714452
H      -1.562916   -1.844916   -1.558232
H      -1.509452   -0.315421   -2.447059
H      -0.612407   -1.713198   -3.046504
H       1.537012   -0.312676   -3.066967
H       0.627053    1.083686   -2.486992
H       2.063512    0.542077   -1.609207
