20

C      -0.530517    1.103814   -0.532550
O       0.606910    1.449266    0.264712
C       0.261383    0.065514    0.134446
C      -0.211188   -0.614508    1.379894
C      -1.338583   -1.585771    1.334313
N      -1.536989   -0.249543    1.917444
C      -1.413427   -0.213300    3.387652
C      -0.100913   -0.933888    3.776895
C       0.785698   -0.759961    2.527303
H      -1.492848    1.369232   -0.102826
H      -0.414614    1.265125   -1.603651
H       0.971581   -0.510346   -0.462483
H      -1.869740   -1.748317    0.400455
H      -1.308219   -2.452523    1.990510
H      -1.375983    0.842020    3.677476
H      -2.301329   -0.654020    3.851501
H       0.351868   -0.509064    4.675889
H      -0.279911   -1.993173    3.983024
H       1.484983   -1.589289    2.383306
H       1.372553    0.162742    2.586405
