14

C      -0.055224    1.383731   -0.016449
O      -0.047467   -0.043549    0.033541
C      -1.257057   -0.614651    0.013044
N      -2.426727   -0.019430   -0.046653
C      -3.335365   -1.054536   -0.040939
O      -4.663351   -0.805546   -0.093889
C      -2.723222   -2.271269    0.021787
N      -1.354689   -1.960472    0.056579
H       0.991936    1.686710    0.008155
H      -0.533174    1.736850   -0.934975
H      -0.592828    1.798738    0.841199
H      -4.754460    0.153712   -0.130252
H      -3.091415   -3.280161    0.044562
H      -0.584154   -2.603547    0.104791
