15

O       0.034526    0.071181    0.282189
C      -0.057039    1.244821    0.082391
C      -1.144507    2.251361   -0.091140
C      -0.754242    3.463406    0.816570
C       0.209696    3.228388    1.980818
C       1.473205    2.660940    1.263189
N       0.993928    2.249486   -0.081399
C      -0.051140    3.240568   -0.467554
H      -2.151269    2.126705   -0.468737
H      -1.528171    4.219834    0.892062
H       0.422541    4.168806    2.497823
H      -0.195253    2.528824    2.717907
H       2.245749    3.425571    1.144735
H       1.911715    1.798798    1.768885
H       0.044964    3.875049   -1.336683
