18

C      -0.558867    1.349964   -0.052656
C       0.041072   -0.042462    0.023038
N       1.220245   -0.235572   -0.919203
C       2.133174   -0.371298    0.230332
C       2.872183    0.748272    0.990460
C       2.207742   -0.077943    2.119027
C       2.407452   -1.446810    1.333011
O       1.040401   -1.880924    1.434203
C       0.961037   -0.422337    1.222704
H       0.202489    2.123085    0.076783
H      -1.024278    1.502070   -1.031583
H      -1.324109    1.478519    0.719845
H      -0.734714   -0.807038   -0.086608
H       1.150863   -1.048766   -1.521519
H       3.965754    0.749076    0.962438
H       2.488732    1.761877    0.853401
H       2.265636    0.062574    3.200919
H       3.203098   -2.189327    1.456052
