18

C       0.106905    1.568975   -0.257111
C       0.093327    0.099011    0.071738
O       1.343464   -0.614839    0.078483
C       0.608224   -0.539081    1.295011
C       1.280312    0.099979    2.490667
C       2.439736   -0.777043    3.061837
N       3.644210    0.059257    2.951251
C       3.257083    1.154121    2.453352
O       1.943459    1.343954    2.164424
H       0.906705    2.090644    0.263793
H       0.232994    1.703013   -1.336745
H      -0.852197    2.019775    0.021575
H      -0.699106   -0.458002   -0.435220
H       0.130991   -1.480195    1.589647
H       0.519182    0.322104    3.246763
H       2.276040   -1.059947    4.106114
H       2.574916   -1.697049    2.483798
H       3.887957    2.006336    2.227738
