17

C      -0.030366    1.499528    0.085999
C       1.374228    2.110392   -0.029395
N       2.124864    1.438180   -1.081726
C       3.203530    1.879482   -1.808468
C       3.661631    0.777833   -2.490890
N       2.910032   -0.328995   -2.191120
C       1.996343    0.095973   -1.333658
C       0.945526   -0.650559   -0.677192
C      -0.004525   -0.010143    0.017364
H      -0.485635    1.842651    1.020378
H      -0.665814    1.885108   -0.725294
H       1.319675    3.178917   -0.253369
H       1.911698    1.995191    0.921821
H       3.527439    2.907164   -1.779988
H       4.485057    0.728058   -3.187351
H       0.963216   -1.728039   -0.790185
H      -0.810521   -0.557644    0.494269
