18

O       0.164519    1.410383   -0.194221
C       0.029739    0.028021   -0.025276
C       0.205463   -0.635204    1.377144
C      -0.891782    0.044828    2.222000
C      -2.035052    0.037978    1.253890
C      -1.377802   -0.644692    0.036451
C      -0.691769   -1.798559    0.839701
C      -1.640725   -2.179298    1.963047
N      -2.052313   -0.849186    2.439691
H      -0.394403    1.840656    0.462720
H       0.672236   -0.432221   -0.780763
H       1.181082   -0.796993    1.833455
H      -0.692502    0.803075    2.968430
H      -2.809389    0.790391    1.175872
H      -1.987484   -0.815979   -0.849651
H      -0.199405   -2.579000    0.263777
H      -2.516851   -2.740517    1.622016
H      -1.156093   -2.732363    2.774291
