21

C       0.104365    1.569179    0.027702
C      -0.037503    0.057237    0.020290
O       0.530692   -0.390365   -1.201105
C       0.998753   -1.723258   -1.252341
C      -0.084856   -2.796462   -1.159906
O      -0.866847   -2.765094    0.023722
C      -0.151442   -2.821542    1.245987
C      -0.072403   -1.442900    1.901021
O       0.636703   -0.474852    1.144790
H       1.163935    1.834094    0.070655
H      -0.329690    1.991845   -0.881729
H      -0.405043    1.991225    0.897952
H      -1.093004   -0.244718    0.065006
H       1.488937   -1.825038   -2.226985
H       1.762263   -1.884215   -0.481910
H      -0.803023   -2.672711   -1.976386
H       0.400783   -3.781178   -1.277659
H      -0.697821   -3.494223    1.921042
H       0.853675   -3.240885    1.103942
H      -1.094562   -1.090768    2.103509
H       0.450777   -1.525401    2.860388
