15

C      -0.115175    1.429260    0.090899
N      -0.036315    0.011228   -0.241206
C      -1.158111   -0.777900   -0.086235
C      -1.321791   -2.120219    0.122197
C      -2.743117   -2.333548    0.091282
O      -3.403795   -3.512052    0.252887
C      -3.334142   -1.130984   -0.120792
O      -2.346455   -0.161637   -0.229455
H       0.844476    1.894337   -0.145239
H      -0.884661    1.903332   -0.521141
H      -0.353230    1.621589    1.147699
H       0.795287   -0.443314    0.105417
H      -0.547238   -2.855736    0.274452
H      -2.755489   -4.212712    0.363645
H      -4.349771   -0.792260   -0.203495
