20

C      -0.120933    1.781095    0.567314
C      -0.076928    0.317444    0.104485
C       0.796390   -0.565847    1.016192
O       1.023064   -1.878427    0.451849
C       2.168397    0.028675    1.352348
O       2.927083   -0.868397    2.131248
C      -1.528525   -0.199375   -0.081414
N      -1.689130   -1.548394   -0.075121
O      -2.457656    0.568374   -0.252777
H       0.845581    2.273085    0.435843
H      -0.876488    2.314486   -0.009166
H      -0.403544    1.850932    1.623076
H       0.375772    0.292049   -0.900604
H       0.270655   -0.769939    1.955767
H       1.417376   -1.752316   -0.420984
H       2.686356    0.289974    0.409558
H       2.061113    0.949108    1.931407
H       2.773055   -1.742847    1.751772
H      -0.909626   -2.168287    0.084368
H      -2.622144   -1.906847   -0.194902
