13

N      -0.273343    1.418765   -0.111428
C      -0.065936    0.017312   -0.059709
C      -1.103285   -0.887863   -0.153937
O      -2.417010   -0.685800   -0.300725
N      -0.569574   -2.125718   -0.071166
N       0.775099   -2.111511    0.074748
C       1.083240   -0.812010    0.081676
C       2.426129   -0.365042    0.217590
N       3.493258    0.070327    0.324430
H       0.221863    1.848127   -0.887133
H       0.043689    1.881701    0.735029
H      -2.530798    0.277047   -0.334054
H      -1.055086   -3.006874   -0.104246
