13

N       0.120241    1.390511    0.156897
C       0.027606    0.026422    0.056232
C      -1.093688   -0.766283    0.022475
O      -0.615081   -2.099059   -0.012579
C       0.712188   -1.959790   -0.003673
O       1.446066   -3.065025   -0.038101
N       1.173349   -0.750443    0.034871
C      -2.460892   -0.512518    0.016562
C      -3.641472   -0.254929    0.003422
H       0.991293    1.769045   -0.183957
H      -0.695107    1.904936   -0.140309
H       0.852036   -3.825696   -0.063993
H      -4.679481   -0.033513    0.010841
