17

C      -0.155784    1.298860    0.003422
C       1.262778    0.801630    0.093960
O       1.830118    0.690550    1.395174
C       1.035709   -0.151544    2.089916
N       0.918747   -0.288073    3.345173
C      -0.159869   -1.292491    3.483816
C      -0.895261   -1.322692    2.104725
N       0.197251   -0.879346    1.238807
C       0.139966   -0.197111   -0.018094
H      -0.605129    1.728579    0.892663
H      -0.451198    1.759727   -0.933091
H       2.007397    0.998876   -0.664531
H       0.269418   -2.277537    3.709870
H      -0.827806   -1.026609    4.306898
H      -1.263237   -2.313612    1.828762
H      -1.736205   -0.612375    2.078658
H      -0.037278   -0.790224   -0.907320
