17

C      -0.007223    1.527136   -0.021902
C       1.440478    2.060995    0.008529
N       2.205033    1.676396    1.205159
C       1.921703    0.363072    1.615318
C       0.956452   -0.427398    1.069203
C      -0.037507   -0.017559    0.041591
O       1.000841   -1.657247    1.614327
N       2.012002   -1.687109    2.575580
C       2.555578   -0.493057    2.558555
H      -0.560697    1.936290    0.831647
H      -0.508130    1.876937   -0.929741
H       1.977968    1.678521   -0.869562
H       1.447969    3.151814   -0.062622
H       2.102425    2.348975    1.955757
H      -1.038760   -0.379049    0.299119
H       0.208373   -0.450386   -0.937160
H       3.379429   -0.280356    3.225385
