19

O       0.114235    1.389900    0.587324
C       0.066464    0.050778    0.194581
C      -0.475009   -1.018405    1.100558
C      -1.244976   -0.621579   -0.153811
C      -2.510278    0.155865   -0.098573
C      -3.199130    0.700686    1.151651
C      -3.946464   -0.205728    0.224922
O      -4.475938    0.521520   -0.881503
C      -3.129923    0.863223   -1.309458
H      -0.765336    1.648526    0.881983
H       0.934187   -0.184516   -0.412770
H       0.002263   -1.992240    1.119507
H      -0.864521   -0.694906    2.059960
H      -1.207267   -1.333318   -0.975623
H      -2.883971    0.247007    2.085813
H      -3.493242    1.745675    1.219548
H      -4.423991   -1.137334    0.505685
H      -2.979493    1.944991   -1.405748
H      -2.892982    0.370927   -2.259760
