23

C       0.212060    1.366267    0.555486
C      -0.144553   -0.122627    0.574269
O       0.123422   -0.681067    1.862411
C      -1.561607   -0.490920    0.118661
C      -2.724057    0.218649    0.780609
C      -2.399569    0.493213   -0.665825
C      -1.681275   -1.949025   -0.246000
C      -1.866579   -3.024706    0.792844
C      -2.967844   -2.736115   -0.195747
H       1.211130    1.489134    0.981260
H       0.220241    1.770731   -0.460750
H      -0.481024    1.965576    1.157001
H       0.559404   -0.642458   -0.087839
H      -0.564524   -0.360247    2.456158
H      -3.622605   -0.340443    1.014997
H      -2.504910    1.001790    1.499897
H      -1.989787    1.463513   -0.918992
H      -3.064007    0.078349   -1.416041
H      -1.024183   -2.218050   -1.071299
H      -1.301117   -3.944590    0.695200
H      -2.015462   -2.702478    1.816616
H      -3.868812   -2.258256    0.172913
H      -3.150026   -3.449153   -0.992504
