21

C       0.004508    1.598010    0.004208
C       0.044901    0.065379   -0.020284
C      -1.367957   -0.511235   -0.144277
O       0.815486   -0.302523   -1.181223
C       1.828911   -1.230995   -0.838489
C       2.186066   -0.912163    0.613760
C       0.802272   -0.585110    1.199039
C       0.856921    0.285288    2.431499
O       0.218884    0.090797    3.434737
H       1.006921    2.022778    0.105735
H      -0.413048    1.956259   -0.940738
H      -0.622206    1.972809    0.819659
H      -1.881695   -0.077116   -1.006958
H      -1.329634   -1.596353   -0.277910
H      -1.954816   -0.296988    0.754976
H       1.467658   -2.268419   -0.928847
H       2.661071   -1.100270   -1.536761
H       2.683208   -1.736069    1.131485
H       2.841250   -0.034156    0.659205
H       0.282501   -1.504487    1.483354
H       1.554533    1.151087    2.358507
