17

O      -0.014838    1.414297    0.050350
C      -0.004702    0.001150   -0.001816
C       0.529623   -0.677713    1.340205
C      -0.782221   -1.340323    1.664617
O      -1.476842   -2.189608    2.612828
C      -2.474020   -1.862217    1.534275
C      -1.988460   -0.402114    1.377779
C      -1.482807   -0.491163   -0.078136
C      -1.432229   -1.959153    0.395132
H       0.894960    1.727631    0.042419
H       0.577305   -0.353558   -0.864617
H       1.353607   -1.374445    1.164482
H       0.838565    0.087991    2.056310
H      -3.464957   -2.295536    1.658685
H      -2.269272    0.465200    1.971461
H      -2.055722   -0.148069   -0.938683
H      -1.084380   -2.855236   -0.117744
