15

O       0.170309    1.375886    0.284063
C       0.077168   -0.018534    0.139690
C      -1.379961   -0.538145   -0.023881
C      -2.550627    0.424060   -0.327674
N      -2.896836    0.202260   -1.750573
C      -2.027731   -0.563273   -2.265826
N      -1.023260   -1.057333   -1.382450
C       0.285145   -0.499624   -1.321660
O       1.140512   -0.370085   -2.145356
H       1.012969    1.655242   -0.092808
H       0.669864   -0.555528    0.892279
H      -1.648661   -1.336575    0.669791
H      -3.421167    0.218936    0.299110
H      -2.279066    1.475927   -0.193298
H      -2.000716   -0.845097   -3.312144
