20

C       0.004186    1.562311   -0.002715
C      -0.004308    0.026113    0.013853
C       0.745652   -0.503436    1.222044
O       1.540495   -1.407041    1.201300
C      -1.427037   -0.529624    0.037703
C      -2.582207   -0.271599   -0.962674
N      -3.235030   -1.245670    0.032084
C      -1.896946   -2.001807   -0.039179
C      -2.542360   -0.396523    1.109878
H       1.023333    1.953246   -0.074354
H      -0.563476    1.941218   -0.857277
H      -0.450331    1.969549    0.907134
H       0.500642   -0.371453   -0.874083
H       0.484110    0.008187    2.179503
H      -3.049506    0.716895   -0.972513
H      -2.485810   -0.678531   -1.973292
H      -1.748398   -2.539143   -0.979805
H      -1.714257   -2.649308    0.822421
H      -2.414316   -0.923060    2.059870
H      -3.007758    0.582060    1.257395
