17

C       0.180090    1.461200    0.029716
C       0.022921   -0.035922    0.087256
N      -0.030096   -0.704019    1.175343
O       0.078106    0.129151    2.299365
C      -0.081173   -0.796237   -1.200384
C       1.205737   -0.937984   -2.063788
O       1.069081   -2.368038   -2.099578
C      -0.052779   -2.338161   -1.188104
H       1.074971    1.773482    0.576460
H       0.247575    1.816093   -1.000863
H      -0.668546    1.951874    0.517964
H       0.028040   -0.502109    3.024827
H      -0.911621   -0.389993   -1.787578
H       1.173049   -0.492648   -3.065264
H       2.129334   -0.622904   -1.559731
H       0.191086   -2.775711   -0.215920
H      -0.932712   -2.838270   -1.607444
