18

N      -0.075239    1.212839    0.019871
C      -0.071103   -0.045697    0.003841
O       1.036016   -0.874725   -0.012685
C       0.411564   -2.197816   -0.006336
C      -0.697734   -2.035630   -1.071129
C      -1.229154   -1.016277    0.002742
C      -0.682639   -2.027879    1.048283
C      -1.425044   -3.073325    1.809067
C      -0.630239   -1.995814    2.534518
H       0.880580    1.574809    0.022010
H       1.180808   -2.966951   -0.003456
H      -0.397745   -1.643411   -2.044915
H      -1.338258   -2.912587   -1.166822
H      -2.233696   -0.603479    0.012806
H      -2.508417   -3.016497    1.842681
H      -1.033208   -4.085829    1.817284
H       0.293834   -2.286202    3.023572
H      -1.183052   -1.217274    3.049821
