16

O      -0.481276    0.333719    0.484385
C      -0.068686    1.405532    0.137565
C       1.373259    1.648625   -0.319792
C       1.456481    2.613281   -1.406352
C       1.463977    3.401552   -2.316596
C       1.515960    4.371589   -3.402100
C       2.413513    5.585740   -3.046203
C       2.468336    6.562432   -4.131012
N       2.498124    7.322360   -5.000823
H      -0.707666    2.314988    0.138766
H       1.922335    2.021013    0.558819
H       1.815895    0.682722   -0.583741
H       1.897446    3.899270   -4.314398
H       0.507649    4.729274   -3.639412
H       2.034915    6.075343   -2.143454
H       3.428591    5.243394   -2.821743
