18

O       0.215903    1.328520    0.086490
C       0.074435   -0.040264    0.073966
C       0.677603   -0.973885    1.166756
C      -0.040966   -1.929588    0.182391
C      -0.494314   -3.276904   -0.324358
C      -1.250624   -2.698713   -1.603638
N      -1.073552   -1.206897   -1.553956
C      -1.198753   -0.921076   -0.075659
C       0.347097   -1.071858   -1.057714
H      -0.239718    1.684945   -0.685240
H       1.768793   -1.030127    1.208494
H       0.254166   -0.882392    2.170713
H       0.323398   -3.950518   -0.594621
H      -1.169927   -3.804859    0.354068
H      -0.827911   -3.082607   -2.536199
H      -2.317684   -2.937297   -1.589770
H      -2.154959   -0.868899    0.449359
H       1.223500   -1.198432   -1.696927
