17

O      -0.094006    1.384995   -0.075699
C       0.021448    0.003101    0.004433
C       1.191813   -0.737779   -0.622737
C       0.944651   -2.147965   -0.052390
O       0.536301   -1.935638    1.298091
C      -0.321962   -0.815855    1.227341
C      -1.248779   -0.814931    0.028800
C      -1.308527   -2.088924   -0.794891
O      -0.065255   -2.805079   -0.775169
H       0.641377    1.776299    0.410606
H       1.190432   -0.747791   -1.714758
H       2.144046   -0.326956   -0.266588
H       1.806134   -2.814966   -0.047231
H      -0.601720   -0.410196    2.190983
H      -2.172668   -0.253403    0.118666
H      -2.082066   -2.756748   -0.395602
H      -1.568218   -1.866605   -1.839050
