23

C      -0.142237    1.598284   -0.041974
C      -0.076095    0.065971   -0.001226
C      -1.484649   -0.541177    0.028706
C       0.735965   -0.518677   -1.177717
C       2.188741   -0.131154   -1.192226
C       2.778018    1.061080   -1.931484
C       3.282815   -0.316944   -2.222163
O       4.252953   -0.714668   -1.249754
C       3.245032   -0.637448   -0.206307
H       0.853675    2.048474   -0.019798
H      -0.643583    1.942419   -0.955021
H      -0.707586    1.987780    0.811159
H       0.434303   -0.225232    0.928684
H      -2.038493   -0.286085   -0.882958
H      -1.449771   -1.633405    0.101541
H      -2.060054   -0.165532    0.881127
H       0.660945   -1.614395   -1.140215
H       0.267440   -0.212893   -2.123339
H       2.120549    1.489116   -2.682635
H       3.430836    1.771832   -1.430606
H       3.309417   -0.796237   -3.194634
H       3.544314    0.024469    0.615555
H       3.024550   -1.637565    0.187401
