20

C      -0.059735    1.436534   -0.001950
O       0.240146    0.047650    0.052352
C       0.785345   -0.509096   -1.120208
C       2.165033    0.038346   -1.467428
C       0.655066   -2.062325   -1.105036
C      -0.009807   -2.726888    0.075907
O      -0.238433   -1.986910   -2.276897
C      -0.184254   -0.615989   -2.299732
N      -0.753686    0.217322   -3.047297
H       0.849644    2.052010   -0.015796
H      -0.671142    1.680182   -0.877525
H      -0.618401    1.662186    0.909161
H       2.832278   -0.058784   -0.605112
H       2.595631   -0.509633   -2.310372
H       2.108269    1.091325   -1.754132
H       1.575492   -2.577748   -1.396076
H      -0.916965   -2.193135    0.362709
H      -0.260896   -3.762466   -0.171802
H       0.670805   -2.731084    0.932837
H      -1.357945   -0.245870   -3.729687
