21

C      -0.132516    1.349149   -0.036631
O       0.053255   -0.045092   -0.030045
C       0.582043   -0.524618    1.191300
C       0.681615   -2.033953    1.080864
C       1.844623   -2.732225    0.297441
C       2.774260   -2.415910    1.503256
C       1.439399   -2.892065    2.145113
C       1.480689   -4.038787    1.076739
O       0.363260   -4.814077    0.761698
H       0.815828    1.890526    0.111232
H      -0.544460    1.621017   -1.011640
H      -0.834761    1.672665    0.748660
H       1.550125   -0.044846    1.398272
H      -0.090398   -0.259960    2.027028
H      -0.323408   -2.390257    0.824571
H       2.075559   -2.631605   -0.763381
H       3.638141   -3.073533    1.635232
H       3.056583   -1.375717    1.655408
H       1.208277   -2.981762    3.208041
H       2.304787   -4.745328    1.202564
H      -0.386114   -4.240334    0.573315
