16

C       0.068809    1.573768   -0.155157
O       1.519846    1.522727    0.133040
C       1.218144    0.327261    0.938653
C       1.358974   -1.243434    0.933738
C      -0.248006   -1.150395    1.113992
C       0.003246    0.044061    0.117265
C       0.603975   -0.742334   -1.071583
O       1.513083   -1.646204   -0.403181
H      -0.448722    2.199211    0.580315
H      -0.128713    1.926007   -1.171028
H       0.999464    0.661051    1.959419
H       2.007552   -1.820977    1.592316
H      -0.789204   -2.026834    0.750165
H      -0.581592   -0.859285    2.108641
H      -0.156851   -1.315799   -1.613281
H       1.162452   -0.114067   -1.769884
