19

C      -0.048783    1.420375    0.034664
C      -0.224567   -0.062826   -0.226999
O       0.968369   -0.532320   -0.881130
C       0.978971   -1.816612   -1.251874
C       1.434164   -2.416940   -2.380743
C       1.270998   -3.827917   -2.155367
C       0.721791   -3.979602   -0.923466
C       0.288046   -5.151893   -0.121625
O       0.542540   -2.739492   -0.349866
H       0.821208    1.597474    0.673070
H       0.094837    1.965279   -0.902373
H      -0.934940    1.819073    0.537211
H      -0.371055   -0.617104    0.706168
H      -1.088117   -0.256444   -0.877154
H       1.830772   -1.919252   -3.249787
H       1.524505   -4.626343   -2.835855
H       0.486566   -6.069816   -0.679911
H       0.821187   -5.212861    0.834609
H      -0.784441   -5.117250    0.105147
