18

C       0.054378    1.484972    0.009817
C       0.018332    0.029168   -0.002066
C      -0.008605   -1.174859   -0.002716
C      -0.058279   -2.635616   -0.028913
C      -1.504476   -3.151445    0.115884
C       0.610442   -3.183982   -1.316210
C       0.805262   -4.682514   -1.267704
O       0.487848   -5.453172   -2.135789
H       1.083847    1.857921    0.048162
H      -0.415320    1.902522   -0.887601
H      -0.476271    1.888969    0.879041
H       0.521735   -3.012416    0.826875
H      -2.118449   -2.809575   -0.722576
H      -1.528269   -4.245961    0.131881
H      -1.954937   -2.782648    1.040516
H       0.031114   -2.923172   -2.206048
H       1.606006   -2.730452   -1.413738
H       1.297948   -5.046171   -0.333197
