16

N       0.245389    1.369363    0.537357
C       0.035705    0.064230    0.091265
C      -1.085945   -0.664044   -0.259086
N      -0.689277   -1.944117   -0.529950
N       0.595637   -2.054498   -0.386837
N       1.045584   -0.838415   -0.000322
C      -2.498817   -0.251141   -0.331704
C      -3.421905   -0.913274   -1.293771
N      -3.554076   -1.168311    0.147313
H       0.850516    1.913415   -0.067808
H      -0.626991    1.866221    0.662177
H       2.021377   -0.709780    0.214868
H      -2.684590    0.790949   -0.077970
H      -4.236396   -0.347166   -1.737739
H      -2.994835   -1.691421   -1.919222
H      -3.113859   -2.062014    0.361509
