21

C       0.324423    1.383050   -0.314902
C      -0.008898   -0.091006   -0.083887
O       0.911879   -0.691783    0.823904
C      -1.451895   -0.300709    0.384432
C      -2.527242   -0.143738   -0.729662
C      -2.631907   -1.699094   -0.838117
C      -1.856104   -1.793653    0.515574
C      -4.021899   -2.266547   -0.847257
O      -4.456644   -3.049825   -1.651793
H       1.360408    1.489076   -0.647145
H      -0.329042    1.832587   -1.068960
H       0.202072    1.954764    0.613876
H       0.141351   -0.643533   -1.020881
H       0.864411   -0.204157    1.654132
H      -1.621248    0.308208    1.281061
H      -3.453506    0.305105   -0.357612
H      -2.235396    0.380500   -1.642926
H      -2.074713   -2.108794   -1.682345
H      -1.038056   -2.513866    0.561664
H      -2.530135   -1.973853    1.358950
H      -4.661144   -1.891145   -0.009549
