19

C      -0.201874    1.509186   -0.131288
C       0.060811    0.009479    0.026720
C       0.755903   -0.611930   -1.186149
O       2.018950    0.005767   -1.459466
C       0.935912   -2.126350   -1.042013
N       1.647658   -2.660482   -2.186332
C       1.284546   -3.800817   -2.825565
O       0.376187   -4.533395   -2.491117
H       0.727567    2.047070   -0.336270
H      -0.886027    1.701629   -0.964608
H      -0.650529    1.928442    0.773766
H       0.680139   -0.172416    0.917816
H      -0.881689   -0.524208    0.200366
H       0.163053   -0.417771   -2.088506
H       2.538969   -0.023752   -0.647282
H       1.481357   -2.341119   -0.109366
H      -0.026447   -2.640426   -0.981491
H       2.386348   -2.086109   -2.563059
H       1.925908   -3.997627   -3.707790
