20

C      -0.300486    1.514458    0.021481
C       0.087444    0.029344    0.052614
C       0.778998   -0.433620   -1.189220
C       0.294033   -0.729121   -2.592087
C       1.354445    0.171995   -3.217645
C       2.150687   -0.028684   -1.899815
C       2.530430   -1.534032   -1.912736
C       1.035289   -1.804187   -1.772398
H       0.583023    2.149709   -0.102116
H      -0.980427    1.724190   -0.810498
H      -0.798187    1.812216    0.949685
H       0.725868   -0.161813    0.926351
H      -0.812985   -0.582190    0.198822
H      -0.726666   -0.892100   -2.916674
H       1.840066   -0.142921   -4.149565
H       0.993118    1.198960   -3.322650
H       2.860009    0.722625   -1.556679
H       3.062784   -1.911173   -2.794669
H       3.071906   -1.824459   -1.007743
H       0.541697   -2.731799   -1.508343
