17

C       0.052087    1.334226   -0.015811
O       0.002672   -0.076125   -0.144711
C      -1.231136   -0.622918   -0.015229
C      -2.458969   -0.083317    0.218062
O      -3.389759   -1.083277    0.259158
C      -2.747394   -2.276358    0.049417
C      -3.558299   -3.518431    0.050135
C      -1.419084   -2.040281   -0.123917
O      -0.440352   -2.957015   -0.356706
H       1.094969    1.628535   -0.141242
H      -0.562207    1.819353   -0.785832
H      -0.302557    1.649358    0.974418
H      -2.822960    0.917259    0.367769
H      -4.326084   -3.504592   -0.732517
H      -2.903353   -4.374366   -0.128999
H      -4.068341   -3.671713    1.008570
H       0.390741   -2.474607   -0.432795
