15

C       0.163309    1.365647    0.161145
O       0.296538   -0.058360    0.032636
C       0.627696   -0.492951   -1.192735
O       0.849310    0.208208   -2.138519
C       0.664077   -2.042739   -1.185755
C      -0.711218   -2.551827   -1.224971
C      -1.840736   -2.956123   -1.256304
C       1.483418   -2.568880   -2.275943
C       2.168892   -3.020835   -3.150125
H       1.105673    1.861075   -0.084095
H      -0.617315    1.737333   -0.506853
H      -0.105321    1.543597    1.201952
H       1.108292   -2.333943   -0.224529
H      -2.837687   -3.320934   -1.288355
H       2.770162   -3.410297   -3.934147
