22

C      -0.490960    1.688668    0.153474
C       0.010699    0.242604    0.051198
C      -1.180296   -0.713053   -0.135797
O      -1.854760   -0.373771   -1.339189
C       1.045704    0.038208   -1.087481
C       1.976789   -1.080042   -0.565791
N       1.935407   -1.066287    0.911650
C       2.173262    0.268859    1.478950
C       0.784529   -0.218936    1.286520
H       0.343656    2.383848    0.284463
H      -1.041522    1.969562   -0.747720
H      -1.166486    1.810851    1.008071
H      -0.819125   -1.752741   -0.165078
H      -1.853677   -0.623072    0.732104
H      -2.577558   -0.994616   -1.465407
H       0.554444   -0.224515   -2.026280
H       1.599154    0.964916   -1.265099
H       1.624084   -2.065775   -0.888187
H       3.009343   -0.975384   -0.913939
H       2.611152    0.265329    2.473006
H       2.545692    1.058039    0.830163
H       0.209496   -0.542788    2.151787
