17

O       0.344487    1.128077    0.382682
C       0.057222   -0.244749    0.258471
C      -1.424365   -0.493721   -0.100262
C      -1.805795   -1.965851   -0.395565
C      -2.705686   -2.390699    0.753182
O      -2.078829   -2.219153    2.022890
C      -3.053903   -1.238504    1.601546
C      -2.315561   -0.040959    1.062525
O      -2.373767    1.085836    1.499076
H      -0.337624    1.517176    0.946823
H       0.691212   -0.631348   -0.547303
H       0.302341   -0.808201    1.172816
H      -1.653481    0.152638   -0.953862
H      -2.343337   -2.052592   -1.344700
H      -0.929707   -2.620262   -0.455058
H      -3.360298   -3.254074    0.669204
H      -3.944448   -1.141162    2.213455
