18

C      -0.063671    1.491218    0.051026
C       0.094943    0.005293    0.012661
N      -0.858172   -0.912191    0.715205
C       0.609525   -0.960913    1.000788
C       1.319389   -1.779185   -0.118366
O       2.635826   -2.176914    0.036824
C       0.406089   -2.257196   -1.213044
O      -0.841952   -2.846006   -1.115526
C       0.762328   -0.777633   -1.154686
H       0.873522    1.988330   -0.220232
H      -0.835718    1.825834   -0.651822
H      -0.345864    1.830730    1.053794
H      -1.299555   -0.381889    1.466571
H       0.996189   -0.811805    2.001413
H       2.640009   -3.109521    0.281241
H       0.990634   -2.743966   -1.993527
H      -1.291417   -2.341601   -0.413494
H       1.276794   -0.274081   -1.964378
