18

O      -0.349010    1.608084    0.237896
C       0.016467    0.254679    0.062965
C       0.997717   -0.114372   -1.090459
C       1.727982   -1.077880   -0.118875
C       1.034484   -0.362591    1.071310
C      -1.300874   -0.493888    0.042232
C      -2.081898   -0.700105   -1.179104
O      -1.331500   -1.770976   -0.592726
H       0.452707    2.112263    0.409625
H       0.578278   -0.539983   -2.003594
H       1.608179    0.755629   -1.352627
H       1.377222   -2.104063   -0.236690
H       2.819338   -1.068815   -0.133809
H       1.666794    0.418195    1.509039
H       0.629404   -0.974617    1.881764
H      -1.840212   -0.447210    0.989815
H      -3.163640   -0.800561   -1.113174
H      -1.704131   -0.332181   -2.130876
