22

C      -0.096821    1.377554   -0.033268
N       0.080714   -0.053890    0.086022
C       0.531261   -0.664483   -0.917178
O       0.710232   -1.998981   -0.889697
C       1.294392   -2.576404   -2.060223
C       1.246914   -4.088869   -1.907108
C       1.818810   -4.817909   -3.129292
C       1.812256   -6.335315   -2.950977
O       1.145030   -4.432107   -4.327919
H       0.488423    1.887621    0.740657
H       0.197540    1.787238   -1.014007
H      -1.147548    1.635442    0.143517
H       0.802999   -0.186487   -1.872612
H       0.743640   -2.269952   -2.956862
H       2.333141   -2.232430   -2.166398
H       1.802569   -4.379162   -1.008256
H       0.205311   -4.397733   -1.746510
H       2.852659   -4.484292   -3.287837
H       2.417065   -6.636789   -2.089976
H       0.791468   -6.701912   -2.784408
H       2.210041   -6.822805   -3.844920
H       0.251115   -4.791035   -4.287718
