22

C       0.272201    1.346590    0.519577
C      -0.041247   -0.048052   -0.030773
C      -1.541366   -0.285925   -0.166673
O       0.517671   -0.231707   -1.331898
C       1.882314   -0.550528   -1.361022
C       2.331367   -2.002593   -1.017407
C       3.304554   -1.920146   -2.226240
C       2.459095   -0.738946   -2.777814
H       1.349422    1.517178    0.603545
H      -0.144805    2.113711   -0.140762
H      -0.162224    1.473420    1.516566
H       0.379044   -0.805860    0.649704
H      -1.976004    0.437340   -0.864250
H      -1.735592   -1.290123   -0.552506
H      -2.042145   -0.178087    0.800217
H       2.476316    0.178543   -0.790182
H       2.750320   -2.203221   -0.028516
H       1.510874   -2.699925   -1.211196
H       4.305684   -1.600900   -1.923700
H       3.400705   -2.807002   -2.855245
H       1.669706   -1.089488   -3.448615
H       2.973763    0.105813   -3.240725
