14

O      -0.103443   -0.061805    0.003528
C      -0.021431    1.144990    0.007443
C       1.216914    1.880199    0.000575
C       2.243195    2.517734   -0.006138
C       3.469953    3.297442   -0.013783
C       3.211882    4.827892   -0.002382
C       4.453594    5.588784   -0.010495
C       5.495890    6.186619   -0.017217
H      -0.927219    1.785242    0.016814
H       4.081668    3.025569    0.854441
H       4.064174    3.035717   -0.897151
H       2.600664    5.093600   -0.872286
H       2.618261    5.083487    0.882615
H       6.408197    6.730187   -0.022720
