14

F       0.153630    0.068157   -0.082973
C      -0.070835    1.394837   -0.044956
F       1.100053    2.003154   -0.281857
F      -0.888549    1.688856   -1.066083
C      -0.678068    1.844997    1.256083
C      -1.378372    0.879674    2.152107
C      -0.063682    1.497667    2.606035
C       1.146019    0.639755    2.741400
O       1.980152    0.814679    3.594018
H      -1.072574    2.851716    1.175227
H      -2.285061    1.196464    2.652481
H      -1.352486   -0.165907    1.866488
H      -0.109808    2.282941    3.352429
H       1.226469   -0.192340    2.013429
