20

C      -0.015273    1.563245   -0.073651
C      -0.007759    0.033448   -0.031230
C      -1.434277   -0.522215    0.092601
C       0.656598   -0.599578   -1.259111
O       2.033218   -0.253270   -1.444774
C       1.723187   -1.500569   -0.802131
C       1.764234   -1.441838    0.705979
C       2.166065   -0.141707    1.305228
N       0.743101   -0.476559    1.160609
H       0.985075    1.959681   -0.260962
H      -0.674514    1.922308   -0.870261
H      -0.379179    1.964278    0.876829
H      -2.049192   -0.225480   -0.763628
H      -1.421649   -1.615259    0.147059
H      -1.901881   -0.146703    1.006110
H       0.084947   -0.748890   -2.173900
H       2.034895   -2.395066   -1.333409
H       1.851199   -2.379945    1.247323
H       2.505001   -0.103895    2.337342
H       2.621452    0.579950    0.636998
