18

O      -0.213839   -0.037640   -0.023168
C      -0.082999    1.172701   -0.007780
C       1.183058    1.885712    0.011342
C       1.099654    3.243405    0.036798
N       2.090944    4.164460    0.068590
C       3.513471    3.861570   -0.099178
C       4.015868    2.828606    0.883239
C       3.539804    1.585729    0.929584
C       2.451534    1.054355    0.025966
H      -0.979859    1.837381   -0.005270
H       0.103352    3.682467    0.051963
H       1.820885    5.127883   -0.028375
H       3.702639    3.528988   -1.132040
H       4.053891    4.801691    0.031969
H       4.795250    3.140443    1.572162
H       3.947459    0.897290    1.666077
H       2.157631    0.046884    0.330861
H       2.845418    0.939930   -0.996117
