15

N       0.088884   -1.134240   -0.160086
C       0.012762    0.018230   -0.059760
C      -0.035717    1.425536    0.088287
C      -1.129810    2.213093    0.036024
C      -0.720889    3.627758    0.130731
C       0.681871    3.686195    0.606269
C       1.196308    2.309449    0.096838
C       1.203021    3.026957   -1.300009
N       0.402275    4.168971   -0.778033
H      -2.149754    1.879862   -0.099958
H      -1.430211    4.411814    0.360239
H       1.073642    4.315724    1.398206
H       2.118654    1.869919    0.467215
H       2.192185    3.417499   -1.546844
H       0.782014    2.488205   -2.153886
