12

O       0.095216    0.052118    0.350977
C      -0.010832    1.209892    0.134186
O      -1.136635    1.888709   -0.215733
N      -0.821791    3.255903   -0.393654
C       0.430691    3.330658   -0.131404
O       1.009054    2.148686    0.187594
C       1.255686    4.554694   -0.138738
C       0.614120    5.874431   -0.139160
O       1.199238    5.347184    1.050360
H       2.251487    4.422936   -0.557168
H       1.144555    6.707413   -0.595408
H      -0.471082    5.936059   -0.140218
