25

C       0.347069    1.665138    0.515092
C       0.030654    0.164899    0.393886
C       0.421428   -0.547914    1.699657
C      -1.452207   -0.071723   -0.010600
C      -1.778223    0.563110   -1.374799
C      -1.868909   -1.577248    0.061080
C      -3.365055   -1.802267   -0.217357
C      -1.040069   -2.427933   -0.882164
O      -0.123698   -3.137647   -0.548653
H       1.388906    1.810929    0.817220
H       0.202333    2.206031   -0.423246
H      -0.285266    2.137941    1.276861
H       0.662759   -0.245335   -0.406877
H      -0.260869   -0.281818    2.516897
H       0.424094   -1.634014    1.588799
H       1.428682   -0.247015    2.005034
H      -2.075844    0.428581    0.745839
H      -1.655886    1.647777   -1.344379
H      -1.121972    0.182246   -2.165456
H      -2.810865    0.369339   -1.675667
H      -1.648940   -1.934571    1.069717
H      -3.618305   -1.648193   -1.270808
H      -3.657704   -2.823860    0.044200
H      -3.975732   -1.115578    0.377334
H      -1.338815   -2.363558   -1.955365
