18

C      -0.157227    1.545245    0.010298
C      -0.015851    0.013837    0.005844
C      -1.365486   -0.504759   -0.238830
N      -2.474412   -0.740219   -0.469935
C       1.169381   -0.669336   -0.778127
C       2.129137   -0.147584    0.328010
C       0.888086   -0.694570    1.092761
C       1.003100   -1.922060    0.151573
O      -0.112521   -2.754978    0.084859
H       0.784819    2.063818    0.186050
H      -0.560987    1.885058   -0.947769
H      -0.863423    1.849293    0.788244
H       1.321308   -0.650671   -1.858541
H       3.051988   -0.715877    0.461483
H       2.327287    0.919440    0.369447
H       0.713080   -0.704100    2.168557
H       1.927289   -2.501132    0.276005
H      -0.144877   -3.183875   -0.776227
