17

C      -0.037706    1.571223   -0.057575
C       0.028145    0.046541   -0.012214
C       0.647952   -0.607770   -1.244391
O       2.027477   -0.277738   -1.455369
C       1.713048   -1.514164   -0.794353
C       1.774471   -1.442780    0.713339
C       2.191689   -0.141021    1.298393
N       0.763764   -0.469300    1.175124
H       0.947561    2.001814   -0.253179
H      -0.714865    1.902490   -0.850961
H      -0.407935    1.962519    0.893845
H      -0.992587   -0.349192    0.079990
H       0.058114   -0.759468   -2.147031
H       2.005556   -2.418090   -1.320505
H       1.861825   -2.377360    1.260450
H       2.546175   -0.098287    2.324894
H       2.639465    0.574077    0.617824
