14

O      -0.013466    1.386927    0.224190
C      -0.046226    0.007794    0.130703
C      -0.438553   -0.771352    1.343981
O      -1.146612   -0.060565    2.333462
C      -2.280284    0.380088    1.730615
N      -2.525899    0.021846    0.535132
C      -1.382640   -0.758066    0.108332
C      -1.577406   -1.842682   -0.801047
C      -1.702653   -2.758989   -1.569518
H      -0.460690    1.756191   -0.545959
H       0.726413   -0.458820   -0.478948
H       0.123449   -1.612220    1.727648
H      -2.908482    1.008171    2.348924
H      -1.829367   -3.567569   -2.246065
