20

O       0.365198    1.125083    0.034581
C      -0.084044   -0.209959    0.228289
C      -1.603268   -0.338758    0.145798
N      -2.117987    0.092857   -1.143866
C      -2.401326    1.529407   -1.349295
C      -3.710576    1.130987   -2.104517
C      -3.514122   -0.265570   -1.481483
C      -4.941860    1.911297   -1.741641
O      -5.809996    1.522952   -1.000683
H       0.326306    1.303538   -0.909477
H       0.379271   -0.890454   -0.500115
H       0.252802   -0.507101    1.227605
H      -1.869603   -1.395173    0.278554
H      -2.066386    0.224087    0.977789
H      -2.600166    2.072683   -0.412722
H      -1.651946    2.084390   -1.922665
H      -3.565271    1.160275   -3.188468
H      -3.614056   -1.134330   -2.139426
H      -4.165652   -0.396951   -0.606243
H      -4.996744    2.925462   -2.200666
