17

O       0.017145    0.022912   -0.274726
C       0.003778    1.212434   -0.017413
C      -1.246998    1.966836    0.200451
C      -1.224095    3.301977    0.269909
C       0.070082    4.063088    0.265643
O       1.165618    3.266880    0.671830
C       1.255642    2.041157   -0.001705
C       2.581197    1.352741    0.080451
C       2.155936    1.952024   -1.232190
H      -2.165965    1.390343    0.206079
H      -2.142504    3.882593    0.314509
H       0.239787    4.497455   -0.737396
H       0.025542    4.899283    0.971292
H       3.345683    1.870219    0.647847
H       2.550722    0.274421    0.181436
H       1.848566    1.284656   -2.028971
H       2.626722    2.878830   -1.539847
