17

C       0.097504   -1.221242   -0.131696
C       0.040794   -0.021085   -0.137096
C      -0.007972    1.434825   -0.125262
C       1.357165    2.056255    0.174828
O       2.308369    1.862677   -0.889123
C       2.429036    3.274792   -1.131089
C       1.480794    3.612273    0.053095
C       0.295093    4.392339   -0.228498
C      -0.688171    5.040119   -0.473761
H       0.143409   -2.281865   -0.137293
H      -0.370377    1.814582   -1.087147
H      -0.719745    1.783265    0.634561
H       1.742701    1.660063    1.121570
H       3.460056    3.628342   -1.020046
H       2.047648    3.563197   -2.116847
H       2.015976    4.039048    0.905215
H      -1.555251    5.615338   -0.686646
