16

C      -0.148958    1.253164   -0.372590
C       1.273070    1.007803    0.016925
N       0.284559   -0.045359    0.133297
C      -0.115033   -0.514130    1.384352
N       0.811533   -0.692862    2.325174
C       0.391586   -1.221792    3.478972
C      -0.935654   -1.558624    3.703477
N      -1.872216   -1.368933    2.763266
C      -1.462827   -0.855345    1.613310
H      -0.748909    1.874892    0.288273
H      -0.439257    1.277522   -1.418707
H       2.028445    0.858185   -0.748537
H       1.632017    1.451651    0.941016
H       1.144571   -1.373478    4.248560
H      -1.258392   -1.984232    4.648738
H      -2.205012   -0.701407    0.833927
