23

C      -0.445429    0.930256   -1.556775
C       0.055108   -0.248127   -0.747891
C       1.525886   -0.590555   -0.603939
C       2.628956    0.209532   -1.264936
C       0.740228   -0.088176    0.596676
C       0.989758    1.247664    1.224640
C       0.119709    1.716302    2.379995
C       1.542227    1.324562    2.633617
O       1.730442    0.149891    3.371531
H       0.209038    1.802286   -1.488042
H      -0.531761    0.668808   -2.617499
H      -1.437033    1.243046   -1.211428
H      -0.604712   -1.110313   -0.815857
H       1.740733   -1.656926   -0.584319
H       2.409812    1.278696   -1.313415
H       3.574873    0.095892   -0.722762
H       2.796503   -0.133922   -2.291947
H       0.493614   -0.845839    1.334589
H       1.337004    2.030652    0.558782
H      -0.158341    2.762291    2.445361
H      -0.631881    1.021237    2.739041
H       2.257870    2.117137    2.853411
H       2.504072   -0.300587    3.015610
