16

C      -0.029257    1.431057    0.040797
C      -0.009177   -0.062979    0.020897
N      -1.196007   -0.898176   -0.311593
C      -0.385822   -2.052082    0.229498
C       0.620376   -1.069404    0.933987
C       1.211860   -0.847202   -0.500857
O       2.411751   -0.250971   -0.782017
C       0.696427   -2.207068   -0.868245
O       1.097598   -3.117240   -1.533788
H       0.973883    1.821982    0.232103
H      -0.379115    1.820659   -0.921370
H      -0.697341    1.807727    0.822291
H      -1.911000   -0.679212    0.384763
H      -0.898629   -2.907887    0.657140
H       1.167123   -1.062555    1.867065
H       2.324201    0.260114   -1.594938
