22

C      -0.152396    1.576757    0.064250
C      -0.075389    0.051057   -0.075851
C      -1.404655   -0.643645    0.062872
C      -1.835320   -1.768526   -0.792407
N      -2.504138   -0.455916   -0.957069
C      -3.459350   -0.184120    0.201966
C      -4.471879    0.890556   -0.039204
C      -3.574342   -1.252787    1.251490
C      -2.365765   -0.348086    1.235643
H       0.827783    2.031660   -0.106859
H      -0.854087    1.989979   -0.666377
H      -0.486221    1.879026    1.061901
H       0.343840   -0.201930   -1.056355
H       0.615476   -0.360626    0.673300
H      -1.203225   -1.999833   -1.645880
H      -2.375521   -2.626977   -0.411591
H      -5.236484    0.550199   -0.747869
H      -4.972736    1.172185    0.892160
H      -3.999041    1.781740   -0.464116
H      -4.287395   -0.996041    2.030070
H      -3.525679   -2.319536    1.062752
H      -2.105007    0.288691    2.071191
