17

C      -0.038124    1.524555    0.036287
C       0.099862    0.035958    0.009680
N      -0.851850   -0.874501    0.703602
C       0.606645   -0.928444    1.005480
C       1.320771   -1.743012   -0.123252
O       2.624124   -2.183073    0.012687
C       0.367774   -2.225422   -1.179952
C       0.789228   -0.765169   -1.144211
H       0.900475    2.009818   -0.253138
H      -0.816615    1.865201   -0.657108
H      -0.301826    1.876440    1.039804
H      -1.288663   -0.333551    1.450930
H       0.994372   -0.772540    2.004972
H       2.601157   -3.087929    0.344885
H       0.859812   -2.786094   -1.969454
H      -0.647592   -2.519905   -0.947158
H       1.308439   -0.290934   -1.966827
