21

C       0.217087    1.616001   -0.030642
C       0.033887    0.086589    0.033783
C       0.592490   -0.647200   -1.212811
C      -0.125617   -0.294572   -2.499700
C       0.371398    0.817594   -3.409609
C       0.492309   -0.625741   -3.827789
O       1.743082   -1.251850   -3.799290
C       0.642510   -0.454945    1.248612
C       1.165553   -0.896760    2.237196
H       1.278856    1.872930   -0.098104
H      -0.294396    2.027649   -0.903801
H      -0.188115    2.090684    0.866817
H      -1.045494   -0.119970    0.082306
H       1.661921   -0.438668   -1.309956
H       0.508946   -1.725988   -1.038658
H      -1.205735   -0.418266   -2.455204
H      -0.347139    1.455242   -3.913790
H       1.291507    1.312497   -3.115818
H      -0.173830   -0.981143   -4.614207
H       2.267369   -0.900590   -4.526280
H       1.616803   -1.290711    3.113662
