14

C       0.016795   -1.143093    0.146275
C      -0.029871    0.052363    0.050128
C      -0.048824    1.516219   -0.066149
O      -0.686766    2.108614    1.065266
C       0.191086    3.044962    1.700547
C       1.471661    2.970406    0.925652
C       1.353865    2.115153   -0.078723
C      -0.787725    1.903158   -1.299422
N      -1.337462    2.226179   -2.262525
H       0.045483   -2.201869    0.232127
H      -0.258157    4.047811    1.673198
H       0.315486    2.762419    2.754854
H       2.350518    3.549835    1.177046
H       2.083567    1.834224   -0.823950
