15

C       0.077369   -3.685967    0.262876
C       0.053370   -2.485769    0.132294
C       0.024929   -1.133281   -0.015180
C      -0.000852    0.069437   -0.145279
C      -0.017526    1.517201   -0.308839
C       1.368310    2.146116   -0.246566
C       1.524143    3.522702    0.281564
N       2.031917    2.365949    1.041785
H       0.100562   -4.741115    0.377289
H      -0.485281    1.768104   -1.271066
H      -0.654954    1.967606    0.465139
H       2.043453    1.805109   -1.028007
H       2.289474    4.180923   -0.119133
H       0.631784    4.032917    0.637105
H       1.398241    2.141159    1.805672
