21

C       0.513395    1.202602    0.383398
C      -0.143058   -0.124899    0.003285
O      -1.543910    0.024762   -0.227583
C       0.415264   -0.669325   -1.293392
N       1.732703   -1.323520   -1.238190
C       0.543723   -2.120497   -1.588748
C       0.158559   -3.200497   -0.617915
C       1.096395   -4.323305   -0.365862
N       0.851866   -3.307950    0.672790
H       1.590771    1.070857    0.522469
H       0.345942    1.951997   -0.397475
H       0.097888    1.588606    1.321313
H       0.035114   -0.858036    0.800814
H      -1.935067    0.394266    0.570123
H       0.213604   -0.021808   -2.146344
H       2.285566   -1.103511   -2.060494
H       0.420678   -2.397562   -2.635309
H      -0.910952   -3.393672   -0.566226
H       0.715799   -5.316396   -0.144096
H       2.052348   -4.304014   -0.883883
H       1.626427   -2.644288    0.648591
