14

O       0.002904   -0.066478    0.003639
C      -0.013519    1.145972    0.009568
N      -1.169237    1.848391   -0.312371
C      -1.553521    3.137426    0.095851
C      -0.766331    4.217421    0.171228
C       0.655639    4.238206   -0.121462
C       1.471895    3.179298   -0.056786
N       1.122826    1.876262    0.338445
H      -1.921647    1.195444   -0.470128
H      -2.609828    3.211278    0.333318
H      -1.234192    5.148499    0.472772
H       1.097983    5.184621   -0.413626
H       2.525769    3.284194   -0.293379
H       1.892681    1.242470    0.490044
