21

C      -0.187549    1.497692   -0.161730
C      -0.096161    0.046858   -0.074566
C      -0.031615   -1.154687    0.005076
C       0.065312   -2.590066    0.064291
C      -0.319264   -3.279780    1.365098
C      -1.227468   -3.379883    0.172454
C       1.210138   -3.185339   -0.780030
C       2.581984   -2.688567   -0.328219
O       1.160737   -4.607144   -0.805902
H       0.803758    1.955638   -0.253743
H      -0.778977    1.812995   -1.028850
H      -0.661539    1.919408    0.731834
H       0.236725   -4.168078    1.646158
H      -0.612717   -2.649221    2.195500
H      -2.153626   -2.818187    0.180560
H      -1.250994   -4.326123   -0.353968
H       1.039165   -2.877429   -1.818485
H       2.778945   -2.994106    0.707391
H       3.364571   -3.104241   -0.969109
H       2.634118   -1.597998   -0.366613
H       1.630620   -4.934037   -0.031733
