15

C      -0.035439    1.535171   -0.112589
C      -0.038587    0.032538    0.069095
O       1.199007   -0.661033   -0.116226
C       0.648088   -0.663619    1.204199
C       1.416144    0.063561    2.286885
C       0.121361   -1.951733    1.635951
N      -0.274893   -2.961341    2.033360
C      -1.192557   -0.619705   -0.535910
N      -2.128326   -1.082312   -1.030471
H       0.857719    1.983088    0.321506
H      -0.055653    1.770060   -1.180294
H      -0.923625    1.974249    0.350068
H       1.822832    1.004437    1.917897
H       0.766992    0.259913    3.144651
H       2.246365   -0.563112    2.623919
