21

C      -0.344846    1.505676   -0.016061
C       0.029191    0.028344   -0.015776
C       1.192872   -0.512141   -0.917482
C       1.772422   -1.229851    0.306206
C       2.165694   -0.217456    1.365982
C       2.758650    1.058244    1.073948
C       3.306862    2.106224    0.848100
C       0.702893   -0.619850    1.211436
C      -0.055874   -1.214250    2.364943
H       0.517443    2.141130    0.193889
H      -0.754785    1.797450   -0.989719
H      -1.112624    1.713434    0.738118
H      -0.867689   -0.562938   -0.236558
H       0.847565   -1.185993   -1.703921
H       1.848192    0.243560   -1.360673
H       2.195452   -2.228138    0.320006
H       2.603584   -0.692503    2.242287
H       3.776045    3.037409    0.648409
H      -0.498086   -0.433817    2.995773
H      -0.871445   -1.854477    2.008811
H       0.593722   -1.823572    3.002079
