19

C      -0.054779    1.362506    0.076587
O      -0.020272   -0.043989   -0.000791
C       0.652550   -0.514622   -1.143279
C       0.612370   -2.046742   -1.094158
C       1.279709   -2.663159   -2.229166
C       1.842762   -3.138148   -3.186071
C       2.517123   -3.715374   -4.333434
C       2.523601   -5.229990   -4.390783
O       3.036538   -3.022167   -5.182624
H       0.957590    1.793174    0.123135
H      -0.577113    1.805539   -0.785635
H      -0.593494    1.625152    0.989897
H       0.170114   -0.154341   -2.066012
H       1.697380   -0.165409   -1.162106
H       1.075993   -2.382882   -0.158657
H      -0.434283   -2.372043   -1.051917
H       1.496436   -5.610401   -4.398617
H       3.051869   -5.559832   -5.286511
H       3.007927   -5.638075   -3.497057
