15

C       0.022749    1.546725    0.001563
C      -0.033020    0.053279   -0.007474
C      -1.101100   -0.784709   -0.023694
N      -2.430206   -0.568060   -0.059280
C      -0.597251   -2.178959   -0.023014
N      -1.340825   -3.199950   -0.015904
O       0.762835   -2.147477   -0.020520
C       1.164891   -0.779520   -0.006990
O       2.325817   -0.495591    0.003121
H       1.065016    1.872614    0.024813
H      -0.447614    1.978836   -0.889948
H      -0.482826    1.971053    0.877818
H      -2.812744    0.345894    0.106339
H      -3.030237   -1.370756    0.049819
H      -0.795572   -4.062534   -0.010328
