21

C       0.059476    1.527228    0.060996
C       0.003184   -0.014870   -0.006847
C       0.670501   -0.603039    1.255944
C      -1.465067   -0.468708   -0.065099
C       0.758768   -0.486334   -1.233561
N       0.164641   -1.196005   -2.191771
N       1.131158   -1.429022   -3.101869
C       2.324713   -0.890954   -2.756390
C       2.127463   -0.267425   -1.545691
H       1.091325    1.889267    0.110733
H      -0.411257    1.975303   -0.819582
H      -0.466634    1.890618    0.950719
H       0.150719   -0.261351    2.157905
H       0.641927   -1.696984    1.240357
H       1.718072   -0.295786    1.336222
H      -1.968868   -0.067446   -0.948198
H      -1.541306   -1.558042   -0.112127
H      -1.997786   -0.121329    0.826636
H       0.905358   -1.957539   -3.926670
H       3.196912   -0.991830   -3.383101
H       2.863948    0.268528   -0.969565
