18

C      -0.169779    1.557535   -0.149566
C       0.090663    0.053977   -0.024989
N       0.693235   -0.534203   -1.207193
C       0.049050   -0.684075   -2.474057
C       0.569375    0.181008   -3.612096
C       1.157985   -1.181957   -3.352895
O       2.320098   -1.262289   -2.558431
C       2.031973   -0.844623   -1.275209
O       2.857449   -0.768865   -0.406439
H       0.766660    2.100677   -0.306904
H      -0.841298    1.779066   -0.984955
H      -0.635054    1.935290    0.766106
H       0.783480   -0.148232    0.795276
H      -0.846115   -0.475358    0.191292
H      -0.958069   -1.086722   -2.472443
H      -0.057445    0.270838   -4.492929
H       1.159777    1.056080   -3.364012
H       1.072187   -1.993122   -4.063800
