13

O       0.010904    0.080981   -0.193139
C       0.052323    1.256773   -0.017532
O      -1.050691    2.092506    0.060039
C      -0.513120    3.451257    0.283696
C       0.710730    3.560176   -0.631433
C       1.759477    3.915879    0.448037
O       2.522164    2.623272    0.288812
C       1.132526    2.287566    0.180602
C       0.629986    3.275949    1.288511
H      -1.348078    4.142996    0.351007
H       0.781787    3.665942   -1.711385
H       2.365453    4.805104    0.605161
H       0.610786    3.063964    2.354919
