17

C      -0.046784    1.367619    0.110984
N      -0.049551   -0.074636    0.128772
C      -1.219016   -0.854490   -0.210908
C      -0.689587   -2.312138   -0.081749
N       0.733090   -2.109769   -0.362326
C       1.113001   -0.801861   -0.041545
O       2.247985   -0.389294    0.048923
C      -0.942702   -2.900446    1.236284
C      -1.137392   -3.405238    2.309444
H       0.979406    1.695827    0.284969
H      -0.389669    1.767166   -0.854834
H      -0.693619    1.768315    0.899248
H      -2.054340   -0.664515    0.468186
H      -1.554517   -0.660849   -1.241734
H      -1.145550   -2.947435   -0.848061
H       1.385565   -2.828531   -0.086029
H      -1.307844   -3.845771    3.260969
