21

C      -0.243497    1.542074   -0.009855
C      -0.134303    0.090023   -0.032102
C      -0.050437   -1.112674   -0.048156
C       0.063884   -2.549676   -0.087737
C       1.192569   -3.100000   -0.952136
C       2.576624   -2.677347   -0.472167
O       3.530683   -3.266515   -1.344980
C      -0.307119   -3.321196    1.173973
C      -1.226582   -3.353167   -0.012504
H       0.270148    1.991167   -0.867323
H      -1.290279    1.864065   -0.049639
H       0.198527    1.966645    0.898779
H       1.144137   -4.194838   -0.957463
H       1.064814   -2.768631   -1.988807
H       2.648089   -1.579787   -0.478137
H       2.726086   -3.010615    0.567605
H       4.404216   -2.964927   -1.080171
H       0.275641   -4.208903    1.396562
H      -0.609464   -2.748310    2.042245
H      -2.155017   -2.797859    0.044901
H      -1.276464   -4.261484   -0.603411
