18

N      -0.502280   -1.043105    0.463567
C      -0.332334    0.088847    0.294740
C      -0.116150    1.503892    0.081144
C      -1.209950    2.236990   -0.677358
N      -1.412272    1.663131   -1.997806
C      -2.465554    0.654941   -2.120371
C      -2.658888    2.025308   -2.665425
C       0.688075    2.207927    1.130100
N       1.265917    1.949190   -0.188492
H      -2.131838    2.241222   -0.067066
H      -0.878135    3.273283   -0.796300
H      -2.241218   -0.178333   -2.778487
H      -3.025891    0.388992   -1.225959
H      -3.351601    2.677041   -2.134663
H      -2.581327    2.216323   -3.731568
H       0.462542    3.250460    1.336864
H       1.022160    1.628284    1.985234
H       1.908053    1.161317   -0.154729
