14

O      -0.070617    1.447097   -0.037247
C       0.033436    0.034999    0.014491
C      -1.386428   -0.520050   -0.024260
C      -1.406617   -2.054787    0.031708
O      -0.788986   -2.582293    1.193646
C      -2.788497   -2.561006   -0.107449
N      -3.875359   -2.945665   -0.184136
H       0.813224    1.818026    0.039374
H       0.606333   -0.359355   -0.841497
H       0.537375   -0.305792    0.929441
H      -1.959968   -0.114094    0.817477
H      -1.885264   -0.183340   -0.939246
H      -0.822589   -2.456726   -0.804777
H      -1.307176   -2.309366    1.960116
