18

C      -0.017581    1.485933    0.039738
C       0.011118   -0.005854   -0.018047
C       0.003102   -0.803197   -1.090495
C       0.003665   -2.271338   -0.716128
C       0.463663   -2.234643    0.753647
O       1.887992   -2.321660    0.864827
C       0.003781   -0.838331    1.261101
O       0.818606   -0.341201    2.299988
H       0.790959    1.856522    0.678609
H       0.074555    1.936034   -0.952262
H      -0.952691    1.841662    0.491824
H      -0.043662   -0.460967   -2.119405
H      -1.000374   -2.709543   -0.802683
H       0.669464   -2.893360   -1.325173
H       0.078260   -3.056042    1.360937
H       2.258763   -1.763496    0.169630
H      -1.022120   -0.894450    1.655752
H       1.658910   -0.813887    2.203172
