19

C      -0.336163    1.295077    0.126997
O       0.178568    0.004326   -0.117197
C       0.764419   -0.589151    1.012139
C      -0.134903   -1.268842    2.098687
C      -1.031456   -2.248563    1.291974
C       0.261407   -3.003298    0.993413
C       0.967530   -2.395712    2.191855
C       1.377738   -1.957484    0.810726
O       2.571098   -2.255263    0.189287
H       0.445007    1.979765    0.492478
H      -0.724615    1.677328   -0.820103
H      -1.153602    1.281799    0.863246
H       1.488250    0.093152    1.483952
H      -0.525157   -0.692317    2.933918
H      -1.691747   -2.822361    1.948267
H      -1.597834   -1.828746    0.454920
H       0.400835   -3.998584    0.590356
H       1.537187   -2.818760    3.004701
H       2.406524   -2.315687   -0.758374
