16

O       0.154605    1.373589   -0.125932
C       0.026795   -0.007961   -0.044674
C       0.175652   -0.842571   -1.339434
O      -1.056251   -1.543640   -1.056272
C      -1.360136   -0.685685    0.061974
C      -1.380587   -1.464312    1.385036
N       0.020214   -1.453649    1.798170
C       0.807858   -0.551852    1.154206
O       1.920976   -0.175573    1.466424
H       0.997004    1.587225    0.303123
H       0.099747   -0.216028   -2.236234
H       1.032965   -1.519086   -1.423311
H      -2.250418   -0.073941   -0.105921
H      -2.019050   -0.978331    2.133970
H      -1.747107   -2.481035    1.214233
H       0.335149   -1.868470    2.661980
