16

O      -0.002018    1.392756   -0.360209
C       0.079156    0.042088    0.076213
C      -1.334941   -0.494336    0.082644
C      -1.987581   -0.853753   -1.279543
O      -1.082959   -2.018079   -1.394323
C      -1.558112   -2.028153    0.003873
C      -3.000622   -1.795400   -0.551180
C      -4.049775   -1.258764    0.296722
N      -4.888299   -0.837804    0.972411
H       0.889033    1.752933   -0.391219
H       0.700814   -0.566439   -0.592106
H       0.496765   -0.026110    1.093450
H      -1.973053    0.052229    0.781273
H      -2.152435   -0.242068   -2.164536
H      -1.214538   -2.831448    0.655251
H      -3.355054   -2.613756   -1.178274
