22

C      -0.049762    1.524481   -0.358858
C      -0.028322    0.107616    0.228932
C      -1.392308   -0.549314    0.160146
C      -1.846273   -1.329053   -1.039726
C      -1.595460   -2.062332    0.275320
C      -0.426623   -3.038409    0.392986
C      -0.760485   -4.440032   -0.129576
C      -2.770004   -2.465214    1.011887
N      -3.702521   -2.794322    1.613712
H       0.938985    1.988742   -0.298449
H      -0.353393    1.510377   -1.410698
H      -0.753933    2.166164    0.181321
H       0.711723   -0.493858   -0.309047
H       0.305184    0.148440    1.273358
H      -2.172946    0.027582    0.649785
H      -2.867520   -1.225945   -1.386403
H      -1.118759   -1.518287   -1.823339
H       0.424857   -2.634551   -0.161944
H      -0.115695   -3.098092    1.442642
H       0.101351   -5.105523   -0.025392
H      -1.595412   -4.879510    0.424259
H      -1.039503   -4.409928   -1.187876
