20

C       0.286511    1.448094    0.223583
C      -0.208921    0.051712   -0.168326
C       0.539099   -0.519239   -1.356459
C       1.886201   -1.200302   -1.168953
C       0.661206   -1.999319   -1.556716
O       0.066347   -2.810937   -0.582092
C       0.557683   -2.594377   -2.936732
O       1.187440   -3.875549   -2.878387
H       1.348081    1.427771    0.491789
H       0.168724    2.158588   -0.602453
H      -0.270700    1.839381    1.080634
H      -0.112104   -0.635836    0.677092
H      -1.280432    0.094259   -0.402849
H       0.436826    0.065433   -2.269595
H       2.670516   -1.038757   -1.900844
H       2.230634   -1.329343   -0.148278
H       0.439246   -3.690506   -0.722974
H      -0.502468   -2.696136   -3.211477
H       1.046234   -1.941984   -3.675253
H       0.877051   -4.401816   -3.620192
