15

N      -0.163147    1.309909   -0.028233
C       0.161023    0.047901    0.328121
N       1.135878   -0.639367   -0.230705
H       1.879100   -0.150308   -0.722035
C       1.214894   -2.034835   -0.135700
C       0.124239   -2.838525   -0.388736
O       0.471063   -4.118997   -0.255197
C       1.918548   -4.178980    0.122727
O       2.402049   -5.266220    0.322047
C       2.335896   -2.829333    0.167320
H       0.381749    1.809231   -0.713125
H      -0.695653    1.872974    0.613810
H      -0.465889   -0.474185    1.039345
H      -0.821281   -2.602471   -0.856442
H       3.303738   -2.511775    0.517223
