17

C       0.135212    1.194952   -1.231127
C      -0.046792    0.174149   -0.136189
C       0.819750   -1.024465   -0.065164
O       1.014062    0.060642    0.831025
C      -1.440875    0.055225    0.434336
O      -2.400836    0.449290   -0.187744
C      -1.586005   -0.556641    1.807409
C      -2.707143   -0.095439    2.652003
O      -2.765518   -1.346186    1.992714
H       1.162313    1.175087   -1.601684
H      -0.554337    0.988934   -2.052730
H      -0.083753    2.199802   -0.858374
H       0.452165   -1.947637    0.380659
H       1.583198   -1.147502   -0.831652
H      -0.689459   -0.935438    2.287469
H      -2.594131   -0.130391    3.734496
H      -3.368070    0.669731    2.250556
