14

O      -0.015823    0.045253   -0.062920
C      -0.022629    1.236637   -0.023021
C      -1.188669    2.244281    0.058391
C      -0.318771    3.511457    0.037933
C       0.706742    3.269261   -1.091672
C       1.177827    2.236470   -0.030634
O       0.727185    3.158457    1.013588
C       2.523641    1.732388    0.076247
N       3.599054    1.314697    0.132189
H      -1.878400    2.132888   -0.782362
H      -1.740437    2.134072    0.994533
H      -0.779540    4.479114    0.221028
H       0.365211    2.904952   -2.062956
H       1.424621    4.083089   -1.188456
