14

C       0.059809    1.569574    0.006916
N       1.244664    0.710349   -0.065602
C      -0.078388    0.079693    0.029143
C      -0.343904   -0.661147    1.275672
C       0.410411   -0.899554    2.402649
N      -0.324707   -1.637032    3.281440
N      -1.495724   -1.875203    2.768677
N      -1.516297   -1.286257    1.553286
H      -0.044834    2.122260    0.935485
H      -0.270445    2.095202   -0.885435
H       1.593331    0.655153   -1.018104
H      -0.491784   -0.370111   -0.872425
H       1.420470   -0.589755    2.610316
H      -2.349791   -1.350607    0.990781
