18

O       0.076380    1.391079    0.338748
C       0.068731    0.003073    0.109594
C      -1.344214   -0.653920    0.035977
C      -2.589570    0.245363   -0.111400
C      -2.835976    0.361707   -1.640934
C      -2.137696   -0.873208   -2.261995
N      -1.017704   -1.108028   -1.350556
C       0.151119   -0.353880   -1.393511
O       0.848782    0.013859   -2.301852
H       0.715488    1.774915   -0.274023
H       0.771772   -0.521965    0.768814
H      -1.497095   -1.477961    0.736112
H      -3.442579   -0.225162    0.385120
H      -2.429012    1.221867    0.348675
H      -3.898647    0.414783   -1.889733
H      -2.359389    1.267884   -2.027928
H      -2.792354   -1.750845   -2.280537
H      -1.759286   -0.699149   -3.271246
