15

N      -0.113965    1.274199    0.303558
C      -0.003281    0.042306    0.020400
N       1.163148   -0.662660   -0.249336
C       1.168113   -1.963904   -0.747859
N       0.160229   -2.602962   -1.177106
C      -1.109237   -1.891966   -1.163484
C      -1.238453   -0.854767   -0.017533
C      -1.398113   -1.519053    1.280525
N      -1.526648   -2.051324    2.298023
H       0.789277    1.753335    0.302669
H       2.046737   -0.214394   -0.059357
H       2.154592   -2.424261   -0.761480
H      -1.229679   -1.364172   -2.119722
H      -1.923233   -2.617573   -1.093202
H      -2.104239   -0.207665   -0.177249
