21

C      -0.823651    1.194316   -1.509105
C      -0.153325   -0.039777   -0.943598
C       1.348301   -0.207301   -0.848777
C       2.334137    0.831500   -1.346342
C       0.518279   -0.055419    0.415664
C       0.547684    1.180936    1.299364
O      -0.685079    1.373248    1.945121
C       1.658224    1.048058    2.324566
O       1.441341    1.094466    3.511731
H      -0.267077    2.113375   -1.311590
H      -0.934529    1.109440   -2.595619
H      -1.820753    1.320530   -1.075803
H      -0.697655   -0.952813   -1.171776
H       1.700857   -1.222142   -1.017337
H       1.977730    1.856832   -1.224833
H       3.292462    0.750533   -0.820342
H       2.534935    0.684652   -2.413272
H       0.370246   -0.961091    0.999083
H       0.799953    2.066376    0.692268
H      -0.482165    1.384636    2.893972
H       2.680061    0.896281    1.922138
