15

O      -0.051846    0.073999    0.133971
C      -0.029989    1.269437    0.012043
C      -1.234666    2.225248    0.045837
N      -0.835939    3.434351   -0.694170
C       0.628180    3.523845   -0.635023
C       1.195223    4.014072    0.714123
O       1.656933    2.682227    1.054196
C       1.207508    2.149725   -0.216470
H      -2.125113    1.757230   -0.377550
H      -1.459471    2.466917    1.093828
H      -1.121732    3.340543   -1.662075
H       1.022627    4.012983   -1.524739
H       2.031010    4.720332    0.650048
H       0.446832    4.393457    1.418530
H       2.002043    1.656866   -0.781900
