16

C       0.086617    1.583360   -0.010987
C       0.079560    0.066415   -0.057626
C       0.683024   -0.698390   -1.228596
C       2.191756   -0.835603   -1.035228
O       2.881071    0.071789   -0.195255
C       2.210598    0.085894    1.008555
O       2.555479    0.744886    1.936415
N       1.015057   -0.723876    0.903717
C       1.286703   -1.670954   -0.222985
H       1.054091    2.006654   -0.289963
H      -0.663656    1.961890   -0.713061
H      -0.174918    1.938834    0.990120
H      -0.922872   -0.309875    0.160987
H       0.220724   -0.898869   -2.187927
H       2.801165   -1.220768   -1.840689
H       1.251523   -2.744056   -0.092691
