17

C      -0.067677    1.518825    0.040464
C       0.036884   -0.006354    0.020784
N       0.740955   -0.529792    1.181226
N       2.057012   -0.699175    1.192333
C       2.308330   -1.102540    2.438743
C       1.101301   -1.157613    3.157746
C       0.834011   -1.554987    4.573315
N       0.119860   -0.781743    2.330311
H       0.926997    1.972624    0.043977
H      -0.604864    1.867785   -0.846536
H      -0.609154    1.855826    0.928427
H      -0.953228   -0.467251    0.019412
H       0.587090   -0.351446   -0.856961
H       3.313333   -1.337080    2.753160
H       1.387308   -0.924866    5.277733
H      -0.231445   -1.459689    4.792030
H       1.131190   -2.592157    4.762125
