11

N      -0.083787   -1.123227    0.343905
C      -0.025076    0.005752    0.111226
C       0.032429    1.437688   -0.188554
C       1.424063    1.992088   -0.156210
N       2.053105    2.596952   -1.115972
C       3.249616    2.900443   -0.508932
N       3.357949    2.514435    0.731597
O       2.123635    1.899452    0.977684
H      -0.374236    1.622190   -1.185897
H      -0.595007    1.973874    0.533326
H       4.054682    3.419878   -1.007401
