23

C      -0.044619    1.644417    0.167883
C       0.030943    0.115748    0.204545
C      -1.322609   -0.548339   -0.075602
O      -1.836740   -0.153229   -1.355326
C      -1.744268   -1.087455   -2.426686
C      -1.727999   -2.537431   -1.939720
C      -2.580224   -2.637105   -0.643052
C      -1.318483   -2.075675    0.073353
C      -0.476619   -2.743079   -1.049669
H       0.938566    2.095134    0.333702
H      -0.421615    1.983602   -0.800383
H      -0.721670    2.025165    0.941004
H       0.770033   -0.234499   -0.525243
H       0.381882   -0.221107    1.189180
H      -2.050035   -0.146203    0.646498
H      -2.620976   -0.900094   -3.058885
H      -0.847613   -0.891868   -3.037794
H      -1.914069   -3.228786   -2.765556
H      -3.501803   -2.051686   -0.586836
H      -2.779569   -3.675074   -0.365936
H      -1.124352   -2.356600    1.111509
H      -0.289987   -3.798923   -0.836307
H       0.458278   -2.270331   -1.363799
