19

C      -0.013478    1.545837    0.162471
C      -0.081966    0.020556    0.051322
C      -1.500228   -0.558663   -0.088359
C      -2.224987   -0.114534   -1.351531
C      -1.495590   -2.092535    0.096015
O      -1.812302   -2.278025    1.475876
C      -2.356148   -1.136320    1.975206
O      -2.826172   -1.031532    3.062541
O      -2.284893   -0.141218    1.058326
H       1.014288    1.865102    0.356686
H      -0.341607    2.039853   -0.756967
H      -0.640666    1.902632    0.983388
H       0.506040   -0.326236   -0.808000
H       0.374593   -0.431186    0.940824
H      -1.686359   -0.464835   -2.237996
H      -3.237204   -0.526522   -1.374538
H      -2.298350    0.973573   -1.402533
H      -2.257016   -2.588365   -0.516393
H      -0.520876   -2.542619   -0.104274
