16

C      -0.048464    1.553838    0.073623
C       0.027950    0.033564   -0.047391
C       0.724783   -0.476621   -1.270369
N       1.207955    0.358387   -2.134954
N       1.816948   -0.201319   -3.202137
N       1.982654   -1.496871   -3.469340
N       1.527760   -2.353567   -2.653916
C       0.853977   -1.925802   -1.478035
N       0.377856   -2.757195   -0.633129
H       0.948117    2.003007    0.099186
H      -0.584455    1.995306   -0.770986
H      -0.571879    1.828982    0.993088
H       0.530074   -0.414010    0.820332
H      -0.971209   -0.421340   -0.032085
H       2.200769    0.431673   -3.885400
H       0.570029   -3.708437   -0.957935
