19

C      -0.072169    1.542531    0.025256
C       1.470410    1.257890    0.029354
C       1.227433    0.031427    0.948875
C       2.190639   -1.100039    0.575193
C       1.795286   -1.182723   -0.912864
O       0.608612   -2.015510   -1.045358
C      -0.541482   -1.309580   -0.509115
C       0.078489    0.011580   -0.126868
C       1.252392    0.229055   -1.124552
H      -0.503819    1.912660    0.959571
H      -0.468412    2.087841   -0.835816
H       2.270580    1.995485    0.116808
H       0.966741    0.199925    1.995190
H       3.242159   -0.831716    0.729350
H       1.989673   -2.043502    1.089130
H       2.535248   -1.588815   -1.601937
H      -1.311116   -1.227964   -1.287012
H      -0.954111   -1.873124    0.336600
H       1.021983    0.567965   -2.135096
