15

O      -0.582660    0.898928    0.530950
C       0.069919    1.329469   -0.386028
C       1.352260    2.093105   -0.206431
C       1.354162    3.597669   -0.040110
C       0.056142    4.351472   -0.122824
O      -0.945705    3.899104   -0.616660
C       1.672374    2.705337    1.140347
C       0.703774    2.622537    2.287058
O      -0.158770    3.439255    2.490008
H      -0.205502    1.128942   -1.440287
H       2.178065    1.682734   -0.783373
H       2.195701    4.150158   -0.452201
H       0.101517    5.394486    0.248153
H       2.711647    2.634433    1.453596
H       0.881659    1.779536    2.983670
