19

C      -0.037990    1.357157   -0.231287
C       0.042639   -0.125288    0.147063
C       0.770671   -0.343767    1.478295
N      -1.296095   -0.715578    0.185794
C      -1.678960   -1.774670   -0.563686
O      -0.953971   -2.353563   -1.362018
C      -3.125465   -2.252896   -0.378873
O      -3.372061   -3.345128   -1.211831
H       0.964160    1.791157   -0.297610
H      -0.535275    1.488017   -1.196098
H      -0.596076    1.926615    0.522007
H       0.564369   -0.673062   -0.641543
H       0.839724   -1.409079    1.714035
H       1.784553    0.065687    1.433947
H       0.245729    0.156144    2.301236
H      -1.968624   -0.315881    0.823517
H      -3.281517   -2.516365    0.680090
H      -3.807749   -1.416925   -0.604485
H      -2.529732   -3.481353   -1.680146
