19

C      -0.142087    1.566339   -0.016694
C       0.034268    0.048565    0.015861
C       0.937226   -0.519504   -1.078413
C       2.322204   -0.609553   -0.532374
C       2.286926   -0.107134    0.906192
C       0.837603   -0.555227    1.199833
C       0.923737   -2.019567    0.730083
N       1.478170   -1.830304   -0.637080
H       0.815211    2.095215   -0.008872
H      -0.674821    1.872202   -0.923606
H      -0.727485    1.913039    0.841471
H      -0.957777   -0.419334   -0.028297
H       0.716390   -0.407114   -2.133707
H       3.211844   -0.574867   -1.149227
H       3.016895   -0.609482    1.549227
H       2.445547    0.971272    0.986491
H       0.452206   -0.368725    2.201408
H       1.604063   -2.635534    1.326027
H      -0.047519   -2.520343    0.672074
