19

C       0.130228    1.365734   -0.491375
C       0.011585    0.002983    0.199298
O       0.437567    0.081131    1.560598
C      -1.371221   -0.587903    0.099826
C      -1.989721   -1.314498    1.091669
N      -3.227630   -1.699144    0.626272
C      -3.409465   -1.236948   -0.651898
N      -4.641308   -1.466429   -1.300188
C      -2.274059   -0.544837   -1.010613
H       1.140863    1.760940   -0.357686
H      -0.073145    1.288455   -1.564139
H      -0.585090    2.078323   -0.065282
H       0.740485   -0.677701   -0.261463
H      -0.234025    0.590865    2.029023
H      -1.637418   -1.604045    2.067128
H      -3.946995   -2.152431    1.162472
H      -4.754521   -0.830384   -2.079912
H      -4.714378   -2.412327   -1.665046
H      -2.104196   -0.076876   -1.968457
