19

O      -0.307488    1.421060   -0.352307
C      -0.029600    0.051188   -0.102255
C      -1.365768   -0.673954   -0.051276
C      -1.239047   -2.160572    0.212892
O      -0.166446   -2.718876    0.271863
C      -2.547286   -2.922355    0.435903
C      -2.446786   -4.379456    0.056684
C      -3.636197   -5.176336   -0.260597
O      -2.777584   -4.699205   -1.297780
H       0.530391    1.888860   -0.412153
H       0.597092   -0.390290   -0.889258
H       0.503616   -0.089417    0.849314
H      -2.014001   -0.224551    0.713031
H      -1.902753   -0.537411   -1.000166
H      -2.779263   -2.830577    1.507608
H      -3.370752   -2.445928   -0.105596
H      -1.558846   -4.886105    0.429804
H      -3.625564   -6.253369   -0.099252
H      -4.621940   -4.713310   -0.220231
