17

C       0.085352    1.539415   -0.006048
C      -0.005387    0.015921   -0.013339
O      -1.353795   -0.429327    0.119477
C       0.676551   -0.652133   -1.237602
C       1.207385   -1.996894   -0.725224
O       1.364360   -3.005513   -1.360992
C       1.428137   -1.838099    0.758195
O       2.120794   -0.601855    1.048359
C       0.708452   -0.624659    1.178377
H       1.129222    1.864452    0.021450
H      -0.375837    1.961053   -0.906912
H      -0.433618    1.945318    0.867380
H      -1.879512   -0.004906   -0.566727
H      -0.020619   -0.808397   -2.063150
H       1.518041   -0.057237   -1.606534
H       1.648511   -2.685111    1.398441
H       0.300973   -0.502904    2.178547
