15

N       0.011467    1.325924    0.051157
C      -0.048931   -0.027263    0.002418
N      -1.113777   -0.781562    0.059716
C      -0.567464   -2.032468   -0.103269
N       0.734507   -2.066365   -0.234847
O       1.095872   -0.694281   -0.172062
C      -1.385780   -3.259616   -0.125633
C      -1.238227   -4.211716   -1.269047
N      -0.739882   -4.567461    0.059240
H       0.898684    1.736343    0.294062
H      -0.805969    1.781505    0.423342
H      -2.355756   -3.146430    0.347638
H      -2.105536   -4.773327   -1.604710
H      -0.525244   -3.943430   -2.043096
H       0.268215   -4.428834    0.097919
