20

O      -0.106329    1.514387   -0.186633
C       0.069932    0.125428    0.059287
C      -1.292700   -0.527432   -0.038507
C      -2.037690   -0.646394   -1.386157
C      -1.226639   -1.224455   -2.562356
C      -1.448505   -2.615530   -1.941209
C      -0.537190   -2.937961   -0.742989
C      -1.468951   -2.053130    0.111948
N      -2.529281   -2.053975   -1.001882
H       0.757081    1.937177   -0.163720
H       0.767029   -0.317417   -0.668487
H       0.491570   -0.056391    1.062173
H      -1.958343   -0.028388    0.673928
H      -2.779392    0.120257   -1.614613
H      -1.771284   -1.114581   -3.503649
H      -0.199230   -0.880609   -2.715771
H      -1.716610   -3.435472   -2.611040
H      -0.621490   -3.987494   -0.448947
H       0.524511   -2.682900   -0.813989
H      -1.748679   -2.429142    1.098622
