21

O      -0.096047    1.457493   -0.076752
C       0.015572    0.055421   -0.006012
C       0.317579   -0.614734    1.363295
C      -0.771746   -1.672922    1.027829
C      -1.682841   -2.157709    2.146726
C      -2.795239   -3.099621    1.639023
C      -3.674922   -3.570353    2.701657
C      -4.383591   -3.943282    3.598273
C      -1.336734   -0.681998   -0.034040
H       0.789630    1.834001   -0.059661
H       0.689492   -0.329552   -0.785371
H       1.334509   -0.960993    1.565643
H      -0.009995    0.043117    2.175005
H      -0.313962   -2.534769    0.527109
H      -1.093281   -2.681353    2.908929
H      -2.144299   -1.297492    2.646311
H      -3.389958   -2.581714    0.875362
H      -2.339541   -3.961826    1.133954
H      -5.017556   -4.278669    4.380873
H      -2.109399   -0.038724    0.400046
H      -1.690839   -1.073050   -0.990306
