15

C       0.079970    1.356559   -0.033184
N       0.014601   -0.081480   -0.205806
C      -1.101053   -0.627243   -0.060075
O      -1.178897   -1.995856   -0.221267
C      -2.376365   -2.564438   -0.063154
N      -3.519463   -2.035556    0.225984
C      -4.379282   -3.135934    0.250418
C      -3.684331   -4.257545   -0.028503
O      -2.367759   -3.893639   -0.236159
H       0.795863    1.590211    0.761964
H       0.463900    1.811103   -0.952615
H      -0.885096    1.824301    0.213915
H      -2.058770   -0.162299    0.185283
H      -5.429204   -3.024016    0.467857
H      -3.908127   -5.305040   -0.120266
