21

C       0.024355    1.454368    0.023141
C       0.022291   -0.043971    0.000517
C       0.087828   -0.832359   -1.082358
C       0.043641   -2.305478   -0.739186
C       0.038448   -2.317580    0.788444
C       1.230333   -1.700990    1.473605
O       2.442608   -1.472611    0.825415
C      -0.016440   -0.854612    1.266073
C      -0.832974   -0.383551    2.447179
H       0.872036    1.842771    0.601323
H       0.079235    1.869225   -0.986728
H      -0.882228    1.845481    0.500476
H       0.172011   -0.471997   -2.102715
H      -0.848640   -2.790286   -1.155343
H       0.909376   -2.847414   -1.144340
H      -0.514503   -3.092853    1.308159
H       1.418360   -2.016905    2.495623
H       2.250217   -0.965069    0.025398
H      -0.471263    0.577144    2.831567
H      -1.890540   -0.261947    2.183596
H      -0.779275   -1.104518    3.268877
