14

O       0.009113    1.412012    0.007551
C      -0.011901    0.001019    0.002327
C      -1.425536   -0.459900    0.012017
C      -2.563593    0.240760    0.023171
C      -3.720921   -0.708024    0.029149
O      -4.901151   -0.465775    0.039526
N      -3.149705   -1.988469    0.020967
C      -1.762725   -1.929374    0.010099
O      -0.995024   -2.861418    0.001416
H       0.925971    1.701119    0.000979
H       0.489980   -0.422989   -0.883533
H       0.504301   -0.429790    0.876586
H      -2.689336    1.312677    0.027602
H      -3.682016   -2.843604    0.022788
