21

C      -0.190099    1.444581   -0.155118
C      -0.343782   -0.034204   -0.460642
O      -1.280817   -0.586170    0.459244
C      -1.456216   -1.952668    0.326607
C      -2.731726   -2.525587    0.820598
C      -3.787599   -1.665754    1.484226
C      -2.468760   -2.497728   -0.699901
C      -3.202084   -1.573698   -1.587958
O      -3.549329   -1.857824   -2.711913
H       0.527676    1.899688   -0.843706
H      -1.147725    1.961854   -0.262502
H       0.167207    1.591414    0.867903
H      -0.696652   -0.189475   -1.491447
H       0.620634   -0.556911   -0.363095
H      -0.540142   -2.536454    0.432207
H      -2.652288   -3.527030    1.234528
H      -3.724869   -0.624713    1.165270
H      -4.793486   -2.039176    1.269300
H      -3.648071   -1.683448    2.570022
H      -2.232879   -3.446199   -1.171200
H      -3.418838   -0.571276   -1.163513
