18

C      -0.199717    1.631241    0.265684
C       0.052502    0.161214    0.103235
C      -1.095622   -0.858127   -0.096480
C      -0.450643   -1.789209    0.991517
O      -0.173083   -3.125281    0.695810
C       0.748331   -0.796783    1.119782
C       1.733890   -1.000144   -0.001084
N       2.718071   -1.767644   -0.164984
O       1.131000   -0.122093   -0.870955
H       0.720972    2.160712    0.526955
H      -0.589331    2.056395   -0.665488
H      -0.939464    1.805427    1.052999
H      -2.087050   -0.487491    0.173741
H      -1.128051   -1.279020   -1.103100
H      -1.053178   -1.783956    1.904156
H       0.663791   -3.166536    0.214137
H       1.131760   -0.533110    2.103258
H       3.114204   -1.666515   -1.101888
