16

C      -0.002407    1.475387    0.031793
C       0.007215   -0.014098   -0.033492
N      -0.042144   -0.738472   -1.122901
C      -0.009391   -2.054116   -0.692506
C      -0.045241   -3.160346   -1.580595
N      -0.072387   -4.088931   -2.272767
C       0.061028   -2.127362    0.683431
C       0.118035   -3.284588    1.617583
N       0.070608   -0.814157    1.084381
H       0.900923    1.866789    0.513157
H      -0.050148    1.866376   -0.984824
H      -0.866974    1.851939    0.590120
H       1.034224   -3.277097    2.219486
H      -0.733474   -3.292766    2.307969
H       0.097703   -4.215322    1.047091
H       0.116369   -0.496930    2.039437
