22

C      -0.026963    1.494530    0.011170
N       0.066499    0.053155    0.021483
C       1.048875   -0.590310   -0.879964
C       1.456399   -1.500745    0.281514
C       0.643948   -0.601564    1.217143
O       1.326784   -2.910568    0.248919
C       2.634666   -2.341215    0.504530
C       3.639123   -2.543831   -0.608454
C       3.152945   -2.557055    1.909361
H       0.941726    1.998236    0.200918
H      -0.400668    1.836121   -0.959822
H      -0.735979    1.826804    0.776712
H       0.611897   -1.079824   -1.756854
H       1.862329    0.079098   -1.206694
H       1.275957    0.062798    1.830133
H      -0.087093   -1.099249    1.863209
H       3.177669   -2.388987   -1.586254
H       4.479509   -1.848703   -0.504207
H       4.042556   -3.561941   -0.578543
H       3.542829   -3.574774    2.020905
H       3.968655   -1.860816    2.133404
H       2.359643   -2.413615    2.646315
