16

O       0.096205    1.350958    0.058966
C       0.080462   -0.052640   -0.016220
C      -1.321492   -0.639657   -0.133827
N      -1.297954   -0.588254   -1.629431
C       0.268611   -0.633193   -1.436841
C       0.224704   -2.161615   -1.288679
C      -1.225415   -1.927087   -0.908528
C      -2.354054   -2.875304   -0.991892
O      -2.215095   -4.067011   -1.116260
H      -0.517573    1.692356   -0.603231
H       0.747176   -0.409011    0.774197
H      -2.208649   -0.368538    0.429305
H       0.905430   -0.127740   -2.160262
H       0.291759   -2.680953   -2.246651
H       0.897640   -2.627864   -0.563661
H      -3.358667   -2.399342   -0.940302
