18

O      -0.042728    1.429133   -0.128575
C       0.011018    0.013767   -0.077495
C      -1.418829   -0.503621    0.058403
C      -2.183481   -0.306958   -1.245292
C      -2.866507   -1.434295   -1.543050
C      -2.080178   -2.458042   -2.364432
N      -1.659186   -3.047611   -1.006846
C      -1.550044   -2.037707    0.180564
C      -2.849277   -2.422739   -0.371607
H       0.846672    1.761678   -0.280473
H       0.472316   -0.406997   -0.985097
H       0.600391   -0.337190    0.784955
H      -1.846871   -0.051107    0.964949
H      -1.732844    0.309348   -2.018568
H      -2.640373   -3.252778   -2.866950
H      -1.278513   -2.083988   -3.007371
H      -1.103949   -2.563268    1.020798
H      -3.659163   -2.992620    0.069644
