17

O      -1.030481    1.384625   -0.562711
C       0.074768    1.044894   -0.213704
C       1.276209    1.940146   -0.126992
C       1.236517    3.374779   -0.710637
C       0.344080    3.877896    0.488574
C       0.811180    5.285720    0.821792
C       2.137046    5.232320    0.677771
C       2.399003    3.793885    0.266439
C       1.413042    2.899365    1.105303
H       0.270479   -0.011913    0.084939
H       2.184803    1.360496   -0.330483
H       1.131722    3.653436   -1.761726
H      -0.711405    3.623737    0.514153
H       0.180061    6.115495    1.106879
H       2.882015    6.003301    0.813358
H       3.415218    3.444110    0.080011
H       1.518346    2.613389    2.155417
