19

C       0.405243    1.524236    0.106144
C       0.154534    0.056917    0.119221
C      -0.283554   -0.782861   -0.826858
C      -0.307960   -2.146336   -0.121779
C      -0.934864   -1.741799    1.252353
C       0.370181   -0.875067    1.329572
C       1.094941   -2.072559    0.625892
C       1.475678   -3.271942    1.448471
O       1.347662   -3.382585    2.643618
H       1.453877    1.753771    0.335690
H       0.168326    1.960943   -0.868272
H      -0.196955    2.039656    0.865424
H      -0.566502   -0.585866   -1.851646
H      -0.619232   -3.028636   -0.680730
H      -1.884422   -1.204282    1.216474
H      -0.960844   -2.545521    1.990683
H       0.737157   -0.456190    2.265509
H       1.932930   -1.824588   -0.035761
H       1.917617   -4.101974    0.847112
