20

C      -0.153681    1.483911   -0.026540
C       0.091762    0.014468    0.030866
C       0.389870   -1.013447   -0.997090
C       1.253292   -1.885209   -0.066153
C       0.321032   -3.020159    0.415985
C      -0.552075   -1.861647    0.940172
C      -1.669504   -2.020502    1.930695
C       0.710151   -0.945990    1.085131
N      -0.938419   -1.027614   -0.285080
H       0.788741    2.042598   -0.051894
H      -0.725071    1.733615   -0.926142
H      -0.726177    1.826628    0.842929
H       0.378065   -0.957589   -2.079208
H       2.309036   -2.023733   -0.290423
H      -0.108081   -3.703303   -0.323262
H       0.762351   -3.585363    1.243573
H      -1.326773   -2.537391    2.832868
H      -2.072275   -1.045710    2.224816
H      -2.489175   -2.599650    1.490846
H       1.247081   -0.719788    2.003676
