23

C      -0.068909    1.556521   -0.015074
C       0.063523    0.029140   -0.115282
C       0.942078   -0.347205   -1.318279
C       0.597144   -0.581083    1.198189
C      -0.066525   -0.109590    2.508382
C       0.278060   -1.206837    3.535356
C       0.153474   -2.507435    2.731016
C       0.494893   -2.117524    1.288349
O       0.638265   -2.901450    0.383149
H       0.903186    2.021069    0.190864
H      -0.436388    1.969341   -0.960288
H      -0.761250    1.864974    0.773393
H      -0.940574   -0.386695   -0.283036
H       1.949297    0.073382   -1.204336
H       1.032892   -1.428882   -1.419060
H       0.519278    0.059841   -2.242911
H       1.676148   -0.360115    1.266622
H       0.266939    0.881256    2.823964
H      -1.155136   -0.058758    2.371707
H       1.309190   -1.076836    3.884493
H      -0.367942   -1.179918    4.416225
H       0.781171   -3.335207    3.069714
H      -0.881210   -2.875425    2.727389
