19

C      -0.100922    1.498165    0.021199
C       0.048266    0.004545    0.001467
C       0.463365   -0.726501   -1.297903
C       0.525024   -2.145961   -0.674232
O       1.850307   -2.420726   -0.226904
C       2.148169   -1.424766    0.769899
C       0.793104   -0.823463    1.115863
C      -0.273677   -1.823801    0.632504
O      -1.177557   -0.744231    0.317236
H       0.862824    1.979409   -0.174762
H      -0.805972    1.822735   -0.751173
H      -0.471172    1.841369    0.991354
H      -0.316667   -0.607854   -2.053364
H       1.429306   -0.433680   -1.716895
H       0.192748   -2.977781   -1.292803
H       2.615747   -1.920036    1.628151
H       2.860488   -0.686224    0.375508
H       0.662889   -0.422466    2.119775
H      -0.699077   -2.634047    1.221786
