16

O      -0.019185    1.382581   -0.133554
C      -0.102806    0.011929    0.031180
C       0.635503   -0.466947    1.282026
O       1.268328    0.321572    1.943528
C       0.481793   -1.945345    1.602160
N      -0.950792   -2.227331    1.638719
C      -1.621153   -2.025915    0.355398
C      -1.548252   -0.532850    0.022536
O      -2.501059    0.148412   -0.233335
H       0.520391    1.700799    0.607981
H       0.384677   -0.525938   -0.809417
H       1.034145   -2.533485    0.841666
H       0.926937   -2.138441    2.579959
H      -1.122695   -3.159675    1.993455
H      -1.170163   -2.605150   -0.475264
H      -2.673343   -2.302227    0.439429
