19

C      -0.204800    1.430531    0.025804
C      -0.017650   -0.064765    0.010284
C      -0.769233   -0.957816    0.931210
N       0.665690   -0.711177    1.149619
C       1.529043   -1.776684    0.598352
C       1.088935   -2.043885   -0.856364
C       0.446480   -0.707928   -1.292071
O      -0.654800   -0.841235   -2.179634
H       0.723209    1.945304   -0.249148
H      -0.978620    1.720684   -0.692666
H      -0.502726    1.777933    1.018129
H      -1.418155   -0.515482    1.681819
H      -1.095119   -1.931532    0.575965
H       2.559517   -1.405911    0.631049
H       1.481643   -2.667873    1.232323
H       1.922938   -2.342565   -1.497213
H       0.331009   -2.830270   -0.919076
H       1.210246   -0.051939   -1.740386
H      -0.316904   -1.118307   -3.036812
