19

C      -0.004242    1.510811   -0.058674
C      -0.040535    0.003940    0.096901
C      -1.147754   -0.672638   -0.683857
O       1.232022   -0.662616    0.042491
C       0.536146   -0.666996    1.299767
C       1.231937    0.049077    2.445893
N       2.383477   -0.746282    2.861881
C      -0.004773   -1.965227    1.686533
N      -0.473253   -2.971300    2.009073
H       0.893717    1.950650    0.374355
H      -0.021951    1.764480   -1.123781
H      -0.883928    1.967809    0.405834
H      -1.018636   -0.467085   -1.751419
H      -1.146124   -1.752839   -0.534957
H      -2.123788   -0.279781   -0.381188
H       1.472376    1.073762    2.133589
H       0.533568    0.117351    3.287909
H       3.082664   -0.743825    2.125621
H       2.813207   -0.342560    3.686746
