21

C      -0.536141    1.318156   -0.350098
C       0.290092    0.095816    0.089352
C       1.036022   -0.519113   -1.003085
C       1.637274   -1.014803   -1.920757
C       2.389148   -1.604485   -3.018751
O       1.625835   -2.635320   -3.635872
C       2.306811   -3.238015   -4.691321
C       3.291119   -4.343943   -4.398284
C       1.931988   -4.649031   -4.999447
H       0.110739    2.095053   -0.766635
H      -1.263606    1.038803   -1.116870
H      -1.076931    1.739984    0.502400
H       0.988110    0.389554    0.883999
H      -0.373639   -0.654844    0.537321
H       2.642521   -0.828398   -3.760838
H       3.344641   -2.011686   -2.650884
H       2.530470   -2.567317   -5.522934
H       4.174420   -4.438881   -5.020278
H       3.434513   -4.608037   -3.356393
H       1.195362   -5.102704   -4.346570
H       1.872250   -4.953686   -6.038050
