18

C       0.562589    1.478594   -0.586413
N       0.853957    0.086580   -0.861983
C      -0.079708   -0.890832   -0.771080
O      -1.251844   -0.728243   -0.495935
C       0.497820   -2.312445   -1.039072
O       1.631842   -2.293088   -1.896566
C       1.287748   -2.154882   -3.265652
C       0.879635   -2.924867    0.228999
C       1.183389   -3.407920    1.285471
H       0.824129    2.114759   -1.438727
H      -0.508579    1.557405   -0.395644
H       1.107795    1.833624    0.295415
H       1.791449   -0.203474   -1.094313
H      -0.323486   -2.885823   -1.491934
H       2.223305   -2.169745   -3.828491
H       0.653715   -2.987360   -3.601377
H       0.763429   -1.209972   -3.464778
H       1.448370   -3.842837    2.217534
