14

C      -0.040438    1.509371    0.010671
C      -0.025589   -0.008978    0.002353
O      -1.363879   -0.469328    0.012690
C      -1.447922   -1.878980    0.005907
C      -2.843521   -2.298552    0.017177
C      -3.984179   -2.673455    0.025969
H       0.981670    1.899578    0.002999
H      -0.566099    1.892281   -0.868433
H      -0.549154    1.882737    0.903738
H       0.499526   -0.388087   -0.891283
H       0.516501   -0.397633    0.881637
H      -0.944765   -2.293343   -0.885431
H      -0.927714   -2.302853    0.882859
H      -4.995410   -2.997298    0.033198
