20

C      -0.002678    1.568064   -0.025543
C       0.000382    0.035163   -0.048740
C      -1.418499   -0.531449    0.033434
O      -1.989025   -0.110943    1.263252
C       0.698086   -0.520018   -1.286094
O       2.072850   -0.107777   -1.238881
C       2.818783   -0.468002   -2.312068
N       4.089398    0.020694   -2.178634
O       2.408186   -1.100272   -3.256681
H       1.016967    1.959855   -0.043245
H      -0.532475    1.967041   -0.899567
H      -0.507300    1.933558    0.870906
H       0.542225   -0.331058    0.833184
H      -2.011279   -0.170624   -0.823855
H      -1.384650   -1.631143   -0.029769
H      -2.903268   -0.406880    1.287826
H       0.655247   -1.614282   -1.317779
H       0.242635   -0.145054   -2.209518
H       4.394974    0.330013   -1.271650
H       4.777974   -0.365646   -2.800992
