17

O      -0.021192   -0.039317   -0.000211
C       0.003330    1.170476    0.009641
N       1.148923    1.924418    0.003007
C       1.240221    3.391507    0.014192
C       2.770912    3.579507   -0.001931
C       3.447016    4.694866   -0.755040
C       3.464406    4.682487    0.753577
N       3.390216    2.271416   -0.019824
C       2.451494    1.411572   -0.016209
H      -0.906549    1.800171    0.025257
H       0.750258    3.821808   -0.865862
H       0.770853    3.806952    0.912426
H       4.363268    4.444622   -1.276529
H       2.813414    5.418514   -1.257872
H       2.842701    5.397670    1.282685
H       4.392388    4.423899    1.249633
H       2.578738    0.337303   -0.026562
