19

C       0.036127    1.431285    0.099797
C       1.334193    0.699996   -0.073684
C       1.782757    0.119254    1.274379
C       0.440904   -0.666172    1.354367
O       0.587276   -2.117129    1.337961
C      -0.388031   -2.236315    2.376842
C       0.095836   -1.588172    3.634120
C      -0.521912   -0.743482    2.534023
C       0.016487   -0.074186    0.014238
H      -0.189351    1.935851    1.037479
H      -0.342946    1.943388   -0.778801
H       1.971144    0.853072   -0.935506
H       2.608633   -0.589405    1.186113
H       1.998787    0.834394    2.075372
H      -1.111743   -3.039447    2.306752
H      -0.534815   -1.720606    4.508223
H       1.162738   -1.544550    3.834710
H      -1.392921   -0.118480    2.676603
H      -0.531507   -0.612973   -0.748476
