22

C      -0.092950    1.515785    0.260543
C      -0.063448   -0.012163    0.090189
C       0.454721   -0.683591    1.376109
C      -1.494454   -0.504873   -0.211687
C       0.820119   -0.468043   -1.073729
N       1.060921    0.423618   -2.206848
C       2.218115   -0.022161   -1.393866
C       2.985213    0.955021   -0.669586
C       3.703265    1.718186   -0.078718
H       0.888731    1.915258    0.520524
H      -0.419877    2.004188   -0.660282
H      -0.791181    1.780615    1.061961
H      -0.198290   -0.450972    2.224070
H       0.486775   -1.774442    1.272012
H       1.463802   -0.337154    1.618917
H      -1.872119   -0.064241   -1.140432
H      -1.530490   -1.595605   -0.313824
H      -2.178013   -0.223336    0.596046
H       0.658596   -1.521297   -1.312365
H       1.045808   -0.080386   -3.089190
H       2.843290   -0.800590   -1.830059
H       4.316501    2.408120    0.446188
