21

C       0.133600    1.510836    0.426135
C       0.001397    0.103686   -0.184366
C      -1.383838   -0.465170   -0.082754
C      -2.197026   -0.766727   -1.098459
C      -3.511992   -1.376625   -0.651779
C      -3.487427   -1.132345    0.884929
C      -2.011491   -0.839868    1.244813
C      -4.699263   -0.701267   -1.310151
O      -5.489794   -1.235540   -2.043081
H       1.157504    1.881845    0.321309
H      -0.536736    2.217139   -0.073318
H      -0.112504    1.512209    1.492444
H       0.305162    0.133462   -1.236442
H       0.705618   -0.568856    0.325418
H      -1.949079   -0.642617   -2.147564
H      -3.566585   -2.441715   -0.909223
H      -4.099154   -0.252860    1.118870
H      -3.910812   -1.972305    1.439585
H      -1.506358   -1.723379    1.660757
H      -1.919389   -0.053663    2.002102
H      -4.784545    0.384175   -1.059794
