20

N      -0.095571   -1.110491   -0.053665
C      -0.013033    0.033944    0.084873
C       0.116390    1.479759    0.248465
C       1.446931    2.027328   -0.313615
C       1.537061    3.529006   -0.139487
C       1.906381    4.235736    1.141503
C       3.014820    3.495815    1.904505
C       3.933783    3.598836    0.644270
C       2.808982    4.332115   -0.099292
H      -0.732794    1.963153   -0.248864
H       0.033057    1.722282    1.313936
H       2.275256    1.518213    0.185501
H       1.520239    1.768802   -1.375975
H       0.749517    4.060804   -0.673151
H       1.261692    4.993896    1.570670
H       3.404368    4.077633    2.742124
H       2.775479    2.492077    2.271411
H       4.798516    4.240600    0.824197
H       4.289833    2.663858    0.200204
H       2.955746    5.172782   -0.767351
