14

N      -0.093808    1.356305    0.126524
C       0.007911   -0.005272    0.027515
N      -0.977748   -0.891366    0.024390
H      -2.011183   -0.887647    0.029148
C      -0.483481   -2.189025    0.000891
C       0.865649   -2.080772   -0.014471
N       1.159825   -0.705445    0.003644
C      -1.605413   -3.261154   -0.016932
O      -2.725477   -2.689889   -0.000183
O      -1.241905   -4.432652   -0.045287
H       0.617639    1.890935   -0.350823
H      -1.021379    1.721427   -0.033591
H       1.640658   -2.824840   -0.045313
H       2.079088   -0.296060    0.050721
