13

O      -0.323685    0.065118    0.151464
C      -0.045670    1.222327    0.005751
C       1.374371    1.711888   -0.304668
C       1.385829    2.806977   -1.326298
N       1.974854    2.595470   -2.503078
C       1.912256    3.643946   -3.314439
N       1.310503    4.806973   -3.044560
N       0.723771    4.933602   -1.866512
N       0.760307    3.950106   -0.990203
H      -0.795751    2.034046    0.106835
H       1.764232    2.115535    0.639576
H       1.990283    0.871766   -0.624683
H       2.383723    3.563730   -4.290416
