17

O       0.027652    1.384502   -0.077781
C      -0.024631   -0.022187    0.021309
C      -1.443448   -0.480531    0.045463
C      -2.549077    0.281480    0.003930
C      -3.766023   -0.570085    0.057105
O      -4.917972   -0.206335    0.121690
C      -3.282139   -2.009697    0.042624
C      -2.489997   -2.432106   -1.182364
C      -1.779076   -1.942450    0.062457
H       0.948813    1.657132   -0.042824
H       0.488262   -0.515513   -0.823881
H       0.476769   -0.387507    0.935592
H      -2.580523    1.358513   -0.073583
H      -3.851319   -2.757218    0.579399
H      -2.462720   -3.495468   -1.398123
H      -2.493542   -1.786552   -2.054277
H      -1.172451   -2.634865    0.635201
