17

O       0.094176    1.465058   -0.100250
C       0.010254    0.073963   -0.060242
C       0.151614   -0.635609    1.304470
O      -0.846025    0.042635    2.101143
C      -2.002757    0.042005    1.216588
C      -1.398311   -0.656459    0.002619
O      -2.254584   -0.846093   -1.063970
C      -0.646935   -1.826217    0.710166
O      -0.000135   -2.621523   -0.258134
H      -0.161466    1.783628    0.774695
H       0.644755   -0.344741   -0.839758
H       1.080334   -0.727197    1.864570
H      -2.829804   -0.512056    1.670891
H      -2.324333    1.066726    1.002782
H      -1.808464   -1.427347   -1.690984
H      -1.218030   -2.419524    1.434193
H       0.585484   -3.240535    0.188477
