19

C       0.163564    1.566201   -0.134631
C       0.115836    0.053295    0.006116
O       0.802438   -0.524815   -1.110597
C       1.219170   -1.845874   -0.752784
C       2.348469   -2.244693   -1.587216
C       3.275468   -2.610559   -2.257748
C       1.508399   -1.779288    0.747619
C       2.306218   -0.586925    1.200291
C       0.798563   -0.541766    1.230695
H       1.194955    1.926396   -0.091168
H      -0.271721    1.873657   -1.089422
H      -0.405988    2.038816    0.671644
H      -0.936762   -0.279872    0.002798
H       0.391655   -2.557597   -0.916512
H       4.096013   -2.924956   -2.854041
H       1.526740   -2.706006    1.307462
H       2.820528   -0.667533    2.150984
H       2.830693   -0.009022    0.446412
H       0.274416   -0.518179    2.179020
