17

C       0.155270    1.430126   -0.141359
N      -0.177806    0.025727   -0.004313
C      -0.114264   -0.878756   -1.043230
N      -0.029512   -2.123545   -0.738613
C       0.129854   -2.188470    0.682321
C       1.321134   -1.529785    1.304287
C       0.053555   -0.706051    1.214208
C      -0.730597   -0.361268    2.411948
O      -0.545860   -0.837637    3.508081
H       1.227498    1.622224    0.008179
H      -0.122979    1.768119   -1.143014
H      -0.404344    2.028571    0.583039
H      -0.169967   -0.510216   -2.062996
H      -0.366470   -2.994074    1.210643
H       1.570781   -1.844221    2.310916
H       2.151101   -1.252987    0.662672
H      -1.553987    0.363514    2.220701
