22

C       0.073271    1.565666   -0.070449
C      -0.049305    0.053542    0.148512
C      -1.483364   -0.495727    0.060635
C      -2.414177    0.133100    1.092239
C      -2.014476   -0.548190   -1.410393
C      -1.603200   -2.038009   -1.507889
C      -1.507890   -2.079154    0.046940
C      -0.414052   -2.812890    0.658943
N       0.468407   -3.386417    1.139456
H       1.125923    1.863261   -0.079184
H      -0.363582    1.875612   -1.026028
H      -0.420919    2.135075    0.721968
H       0.577029   -0.464926   -0.587774
H       0.367448   -0.208503    1.128617
H      -2.536669    1.206212    0.915947
H      -3.410110   -0.320499    1.052270
H      -2.025049    0.003115    2.108812
H      -3.098718   -0.413825   -1.458421
H      -1.550375    0.137922   -2.121734
H      -2.311101   -2.733411   -1.961380
H      -0.627722   -2.177770   -1.976715
H      -2.447525   -2.436519    0.479121
