18

C      -0.030869    1.492696    0.056720
C       0.011005    0.003532   -0.019931
C       0.003677   -0.840785   -1.119518
N      -0.044496   -0.573273   -2.522291
C       0.056872   -2.178860   -0.636754
O       0.066601   -3.285351   -1.428537
C       0.095717   -2.143367    0.737388
N       0.154394   -3.127967    1.749334
N       0.067052   -0.799079    1.086941
H       0.855220    1.912808    0.549754
H      -0.072327    1.910413   -0.953035
H      -0.910381    1.860489    0.600693
H       0.748469   -0.027186   -2.842542
H      -0.885574   -0.075882   -2.795731
H       0.030528   -2.938391   -2.332625
H       0.982667   -3.708078    1.654252
H      -0.643304   -3.754976    1.703017
H       0.083933   -0.493284    2.044594
