20

C       0.083555    1.502578   -0.096228
C      -0.093632    0.006625    0.056478
C      -0.364074   -0.592729    1.397386
N       0.973061   -0.674912    0.814346
C       1.470084   -1.955452    0.319396
C       0.467158   -2.874762   -0.415732
C      -0.370678   -2.107861   -1.421695
O      -1.668657   -1.689614   -0.983971
C      -0.664803   -0.685198   -1.159114
H       0.723001    1.739317   -0.954633
H      -0.882438    1.996886   -0.249918
H       0.553376    1.919709    0.797003
H      -0.450207    0.056329    2.265619
H      -0.996591   -1.475259    1.420827
H       2.296583   -1.720643   -0.363051
H       1.905481   -2.493388    1.168377
H       1.030177   -3.666700   -0.919929
H      -0.203360   -3.370996    0.293184
H      -0.346992   -2.451946   -2.454896
H      -0.847776   -0.025257   -2.006732
