17

O       0.665734    0.652563   -0.817879
C       0.215719   -0.430459   -0.066482
C       0.088602   -0.217726    1.446488
O       0.449981    0.709903    2.123921
C      -1.176601   -1.076085    1.560379
O      -2.145161   -0.650836    2.466529
C      -1.300531   -0.754647    0.044546
C      -2.377531    0.105915   -0.535661
C      -2.224562   -1.334286   -0.976298
H       0.658080    1.425619   -0.238365
H       0.790440   -1.321281   -0.344258
H      -0.978747   -2.141662    1.722952
H      -1.899751    0.239428    2.750636
H      -3.215231    0.353173    0.107878
H      -2.071979    0.883312   -1.227985
H      -1.827912   -1.524583   -1.968695
H      -2.965739   -2.052207   -0.639188
