11

N      -0.022817    1.283824    0.009753
C      -0.053812    0.027469    0.002565
O       1.174550   -0.695670   -0.008215
N       1.235947   -2.052014   -0.016138
C       0.102030   -2.678327   -0.012920
C      -1.174259   -1.967732   -0.001110
N      -1.242536   -0.691053    0.006301
C       0.139217   -4.107448   -0.021257
N       0.095481   -5.263181   -0.027538
H       0.935659    1.632564    0.005981
H      -2.096938   -2.545448    0.001378
