17

O       0.006070    1.409093    0.227436
C      -0.012974    0.002255    0.063299
C      -1.421074   -0.483685   -0.041139
C      -2.532840    0.249610    0.015257
C      -3.777726   -0.581811   -0.180054
C      -3.254569   -2.035607   -0.044230
C      -1.726592   -1.946789   -0.288318
H       0.922001    1.686437    0.315943
H       0.543059   -0.304217   -0.841850
H       0.483757   -0.506769    0.909380
H      -2.547400    1.324434    0.144554
H      -4.565094   -0.352688    0.547470
H      -4.217309   -0.396292   -1.171072
H      -3.437502   -2.392554    0.974194
H      -3.751194   -2.733223   -0.723461
H      -1.458361   -2.226357   -1.318052
H      -1.158331   -2.620025    0.365703
