21

O      -0.051399    1.400052    0.128485
C       0.025732   -0.003247   -0.022986
C       0.207705   -0.589611   -1.453620
C      -0.902088   -1.622794   -1.111020
C      -1.378265   -0.667497    0.018480
C      -1.860968   -1.189261    1.365087
O      -0.825755   -1.798849    2.121378
C       0.258971   -0.909078    2.328963
C       0.979380   -0.636640    1.008672
H       0.843503    1.757179    0.113405
H      -0.135684    0.133421   -2.198332
H       1.196863   -0.961226   -1.735458
H      -1.622359   -1.865944   -1.894120
H      -0.492571   -2.552556   -0.707372
H      -2.104979    0.046152   -0.382213
H      -2.296841   -0.357190    1.943885
H      -2.636835   -1.951917    1.238655
H      -0.098909    0.035506    2.771001
H       0.923723   -1.394221    3.049545
H       1.367829   -1.589057    0.632680
H       1.844121    0.022236    1.163397
