13

C      -0.017322    1.406507   -0.019951
C       0.003683   -0.082554    0.012401
N      -0.061873   -0.809121   -1.111109
N      -0.012694   -2.057982   -0.593548
N      -0.027843   -3.340276   -1.066042
C       0.053206   -4.021569    0.030637
O       0.120919   -3.283792    1.191339
C       0.075255   -2.009058    0.741998
N       0.091116   -0.787796    1.202773
H       0.885915    1.813667    0.444532
H      -0.078861    1.755830   -1.051521
H      -0.874560    1.791281    0.541049
H       0.072783   -5.093464    0.125906
