17

N       0.114384    1.426653   -0.355399
C      -0.001425    0.059383   -0.090939
C      -1.115061   -0.704037    0.100232
O      -0.677776   -2.005065    0.274468
C       0.661266   -1.936871    0.159379
N       1.126970   -0.749388   -0.054425
C      -2.552181   -0.429078    0.147842
C      -3.570488   -1.480811   -0.242025
C      -3.453754   -1.057485    1.196449
H       1.079615    1.719096   -0.271553
H      -0.470786    2.002332    0.235908
H       1.209080   -2.860726    0.256704
H      -2.786861    0.591205   -0.138283
H      -4.435563   -1.158975   -0.810845
H      -3.188697   -2.458393   -0.512219
H      -2.992095   -1.751587    1.889606
H      -4.238769   -0.443925    1.624648
