24

C      -0.040727    1.506933   -0.007924
C      -0.013737   -0.012363    0.006292
O      -1.342550   -0.487601    0.017187
C      -1.436919   -1.896019    0.025493
C      -2.909867   -2.306925   -0.013707
C      -3.586120   -1.780661   -1.286551
C      -3.029162   -3.833459    0.142396
C      -4.464887   -4.346530    0.292855
H       0.977421    1.907522   -0.015875
H      -0.565108    1.872687   -0.895423
H      -0.558095    1.889533    0.876503
H       0.521732   -0.397950   -0.878458
H       0.530262   -0.380780    0.893273
H      -0.902422   -2.319843   -0.844436
H      -0.952245   -2.303327    0.929876
H      -3.391888   -1.833998    0.853808
H      -3.411088   -0.707787   -1.392004
H      -3.180514   -2.278562   -2.176463
H      -4.666066   -1.951073   -1.271721
H      -2.557198   -4.320533   -0.722479
H      -2.448270   -4.145371    1.020321
H      -4.477337   -5.428534    0.457398
H      -4.965112   -3.875030    1.146348
H      -5.066179   -4.143138   -0.598156
