21

C      -2.277698    2.825138    0.708351
C      -1.459242    1.553659    0.566847
C      -0.043955    1.661817    0.041585
C      -0.286232    1.361468    1.499057
C      -2.284869    0.321312    0.273180
O      -3.439919    0.471991   -0.563005
C      -2.379745   -0.379406   -1.023705
C      -1.735803    0.073778   -2.310505
O      -2.601133   -0.168872   -3.408684
H      -1.632451    3.675947    0.947300
H      -2.817733    3.047303   -0.216193
H      -3.019591    2.729367    1.509197
H       0.344896    0.859182   -0.574722
H       0.321658    2.646863   -0.229927
H      -0.086765    2.136691    2.231209
H      -0.070024    0.355658    1.846544
H      -2.494784   -0.288461    1.155696
H      -2.634257   -1.441264   -1.006854
H      -1.460532    1.133541   -2.238948
H      -0.825623   -0.503837   -2.506443
H      -3.421913    0.300951   -3.221999
