19

C       0.067316    1.551352   -0.097791
O       1.361271    2.082467    0.161077
C       2.238583    1.155754    0.810446
C       1.451978    0.346345    1.845492
O       0.438091   -0.446288    1.237142
C       0.023719    0.024587   -0.045417
C       0.827627   -0.676684   -1.156860
C       2.320288   -0.516501   -1.058440
C       2.955531    0.268926   -0.191762
H      -0.647172    1.942252    0.642701
H      -0.249996    1.905131   -1.086190
H       2.971167    1.774179    1.338926
H       2.116851   -0.333261    2.389638
H       1.004736    1.043511    2.570764
H      -1.026344   -0.275146   -0.149068
H       0.588065   -1.747934   -1.119982
H       0.470570   -0.328176   -2.137792
H       2.902891   -1.109308   -1.760808
H       4.041397    0.304053   -0.189651
