23

C       0.042690    1.548103    0.147792
C      -0.008418    0.015738    0.194676
C      -1.401907   -0.539157   -0.024282
C      -2.016969   -0.436383   -1.452300
C      -2.304448   -1.970107   -1.457467
C      -1.722180   -2.079108   -0.023305
O      -0.680667   -2.993890    0.188660
C      -2.747390   -1.876346    1.123676
C      -2.456031   -0.343442    1.106476
H       1.061437    1.913897    0.309304
H      -0.297365    1.928851   -0.821404
H      -0.596001    1.992066    0.919103
H       0.667503   -0.399365   -0.563750
H       0.371353   -0.336684    1.162128
H      -2.894854    0.209551   -1.537583
H      -1.295412   -0.131148   -2.215031
H      -3.348343   -2.273263   -1.581901
H      -1.690234   -2.513979   -2.179372
H      -1.048349   -3.884532    0.158336
H      -3.776741   -2.182547    0.914438
H      -2.415254   -2.360538    2.045331
H      -2.025939    0.023454    2.042414
H      -3.304331    0.296258    0.848879
