22

C       0.018619    1.583756   -0.029075
C      -0.021486    0.056910    0.068670
C      -1.439243   -0.518427   -0.044105
O      -2.067965   -0.134960   -1.268916
C      -1.475550   -2.030432    0.133550
C      -1.178563   -2.638945    1.535625
C      -2.323442   -3.659791    1.293849
C      -2.858962   -2.737786    0.164969
H       1.046461    1.958191   -0.005107
H      -0.451772    1.920141   -0.956676
H      -0.524670    2.044588    0.803405
H       0.597514   -0.386087   -0.725904
H       0.419934   -0.274231    1.017064
H      -2.068972   -0.061486    0.732396
H      -1.573222   -0.545405   -1.987334
H      -0.827298   -2.496276   -0.622243
H      -0.175050   -3.028676    1.722453
H      -1.428635   -1.932054    2.334434
H      -1.943244   -4.606797    0.899880
H      -2.990561   -3.878799    2.130823
H      -3.638300   -2.058670    0.524543
H      -3.212935   -3.208399   -0.754847
