12

N       0.041209    1.350470    0.007356
C      -0.014925    0.010073    0.000923
C      -1.195274   -0.715338    0.003452
F      -2.367554   -0.050766    0.012910
C      -1.112706   -2.096764   -0.003913
N       0.015363   -2.787366   -0.013270
C       1.197518   -2.144288   -0.016211
O       2.313287   -2.553969   -0.024080
O       1.131566   -0.625832   -0.008258
H       0.934290    1.812189    0.004981
H      -0.808013    1.887436    0.014459
H      -2.039270   -2.670002   -0.001954
