21

C       0.055118    1.555808    0.033566
C      -0.021982    0.025096   -0.047496
C      -1.425402   -0.537133    0.011930
C      -2.350065   -0.471224    1.273312
C      -3.093302   -1.591341    0.520516
O      -3.586193   -0.949582   -0.676539
C      -2.443875   -0.139361   -1.066277
C      -1.711587   -2.093310    0.050213
O      -1.641397   -2.858007   -1.114830
H       1.095671    1.893894    0.026591
H      -0.451295    2.032353   -0.812014
H      -0.409815    1.928662    0.952361
H       0.453137   -0.319831   -0.975527
H       0.563819   -0.410488    0.771859
H      -1.855521   -0.817254    2.183477
H      -2.906145    0.449900    1.457861
H      -3.874620   -2.220368    0.943998
H      -2.719257    0.920029   -1.048767
H      -2.120875   -0.409960   -2.078397
H      -1.127395   -2.587815    0.829584
H      -2.433598   -2.641368   -1.624464
