21

O       0.800814    0.246440   -0.831252
C      -0.088722    0.448269    0.258414
C      -1.374563   -0.380200    0.121973
C      -2.239091    0.112691   -1.046078
O      -2.695624    1.432503   -0.832148
C      -1.122745   -1.899844    0.054484
C      -2.190751   -2.479933    0.997996
C      -2.322067   -1.369858    2.040686
O      -2.150164   -0.149154    1.322127
H       0.536283    0.836465   -1.542764
H       0.439314    0.129691    1.163310
H      -0.357109    1.504561    0.375630
H      -1.650246    0.115744   -1.970299
H      -3.078924   -0.585646   -1.193156
H      -3.064870    1.430698    0.060603
H      -1.201082   -2.285074   -0.965169
H      -0.115437   -2.132478    0.412466
H      -3.140877   -2.615830    0.471253
H      -1.905525   -3.441273    1.432251
H      -3.296680   -1.339256    2.537076
H      -1.547190   -1.464634    2.816825
