18

N      -0.018392    1.439520    0.181816
C      -0.006557    0.032051    0.042348
C      -1.093977   -0.806709   -0.006489
N      -2.510830   -0.730169    0.008905
C      -2.935028   -2.093595   -0.392693
C      -1.754210   -3.048770   -0.044117
N      -0.652287   -2.109407   -0.085311
C       0.714638   -2.134512   -0.067619
C       1.142406   -0.822313    0.012036
H       0.781400    1.860237   -0.276607
H      -0.856576    1.837007   -0.228245
H      -2.853002   -0.521767    0.944461
H      -3.869513   -2.373679    0.096998
H      -3.097289   -2.104198   -1.475703
H      -1.859070   -3.499983    0.952635
H      -1.643854   -3.852795   -0.777093
H       1.271007   -3.053170   -0.155961
H       2.172268   -0.495922    0.021055
