17

C       0.007477    1.499794    0.354552
O       1.261605    2.026096   -0.098775
C       1.978580    1.058877   -0.849167
C       1.955532    1.178639   -2.381826
O       2.146512   -0.161813   -2.845249
C       1.511638   -1.077917   -1.946520
C       1.243753   -0.257042   -0.704874
O       1.074549   -0.738261    0.615768
C       0.005037    0.026799    0.015293
H      -0.082915    1.696678    1.429041
H      -0.828537    1.995157   -0.160261
H       3.007326    1.024972   -0.473273
H       0.989156    1.591746   -2.712236
H       2.759270    1.787486   -2.800381
H       0.592883   -1.485725   -2.389315
H       2.197455   -1.908740   -1.747182
H      -0.924845   -0.511037   -0.145564
