19

C      -0.019281    1.496439   -0.005505
C       0.000203   -0.008692   -0.005183
C      -0.255163   -0.917866   -1.182341
O       0.702260   -1.938660   -1.268210
C       1.717623   -1.667542   -0.299721
C       1.038474   -0.834835    0.799660
C       0.142119   -1.687494    1.712240
O      -1.038941   -1.960731    0.955355
C      -1.195030   -0.929777    0.017897
H       0.920312    1.908915   -0.391185
H      -0.828912    1.878062   -0.635632
H      -0.172199    1.895068    1.004163
H      -0.605766   -0.551580   -2.142824
H       2.110655   -2.625361    0.055102
H       2.540652   -1.100553   -0.761791
H       1.745210   -0.217803    1.359200
H       0.590053   -2.644610    1.996976
H      -0.114541   -1.134167    2.628928
H      -2.215048   -0.571973   -0.087720
