18

C      -0.032116    1.565991   -0.005277
C       0.031796    0.057572   -0.009524
C      -0.802009   -0.755761    0.948546
C       0.712651   -0.775751    1.102674
C       1.487504   -1.917928    0.430049
C       1.146173   -1.753265   -1.033602
C       0.393467   -0.677028   -1.262888
C       1.281434   -0.144526    2.255240
N       1.748054    0.366828    3.183386
H       0.887096    2.001525   -0.409724
H      -0.870238    1.916703   -0.617657
H      -0.170399    1.953893    1.007549
H      -1.348616   -0.220428    1.717748
H      -1.279022   -1.661106    0.588053
H       2.565008   -1.818085    0.608834
H       1.194397   -2.898576    0.824079
H       1.480505   -2.457998   -1.785768
H       0.039721   -0.348618   -2.233772
