19

C      -0.228499    1.470067   -0.060676
N      -0.181601    0.018238   -0.168268
C       0.912529   -0.453283   -1.000066
C       0.903377   -1.968630   -1.105796
O       0.030143   -2.573495   -2.062418
C       1.436073   -2.723079   -2.268084
C       2.052441   -2.089522   -3.487730
C       0.935672   -2.642441    0.186994
N       0.979693   -3.135547    1.231805
H       0.711699    1.928634    0.295467
H      -0.457290    1.903359   -1.041136
H      -1.030330    1.757046    0.624662
H      -0.107032   -0.390570    0.758090
H       0.781676   -0.039818   -2.003891
H       1.912734   -0.135754   -0.643949
H       1.798412   -3.728708   -2.048383
H       1.655504   -1.092319   -3.681916
H       3.138954   -2.023666   -3.370709
H       1.847433   -2.712569   -4.364087
