19

C       0.030987   -1.301705    0.251493
C       0.029170   -0.104909    0.135858
C       0.024430    1.345639   -0.019043
C      -0.611510    2.066846    1.195171
O       0.439226    2.208109    2.130458
C       1.605585    2.564180    1.401770
C       1.438945    1.966777   -0.004140
C       2.586282    1.359622   -0.756393
C       1.993585    2.669864   -1.215611
H       0.031213   -2.357750    0.361724
H      -0.506167    1.605856   -0.941411
H      -0.996699    3.049192    0.874844
H      -1.417352    1.501689    1.666244
H       1.707723    3.660251    1.348531
H       2.468673    2.163110    1.942176
H       3.565217    1.376752   -0.287567
H       2.389404    0.467892   -1.341879
H       1.402711    2.675330   -2.126131
H       2.567866    3.577457   -1.053561
