21

C      -0.076172    1.571035    0.067862
C       0.060548    0.045486    0.060614
C       0.744629   -0.513212   -1.235436
C       1.495563   -1.772624   -0.757338
C       3.051512   -1.971390   -0.774424
C       2.989411   -2.216812    0.789674
O       3.938924   -1.623035    1.635743
C       1.653292   -1.533548    0.722711
C       0.964154   -0.492906    1.174022
H       0.907187    2.051157    0.009471
H      -0.670415    1.915658   -0.785434
H      -0.568637    1.924242    0.980180
H      -0.949880   -0.382343    0.151985
H       0.026981   -0.703012   -2.039747
H       1.459544    0.233640   -1.602723
H       0.977701   -2.702238   -1.020173
H       3.462086   -2.776151   -1.390601
H       3.577306   -1.034457   -0.974943
H       2.892737   -3.295610    0.987871
H       4.706789   -2.200750    1.682290
H       1.066036   -0.006035    2.137121
