20

C      -0.021125    1.446647   -0.043737
N      -0.113324    0.008178    0.092290
C       0.589930   -0.677002    1.077555
C       1.202734   -0.006051    2.145438
C       1.861485   -0.715339    3.146135
C       1.932087   -2.101839    3.098549
C       1.327534   -2.770193    2.034383
C       0.656278   -2.090468    1.023470
C      -0.002922   -2.836719   -0.108192
H       1.012366    1.813366   -0.148493
H      -0.586877    1.752809   -0.926732
H      -0.467203    1.946639    0.823132
H      -0.192159   -0.484891   -0.781861
H       1.164958    1.075095    2.197611
H       2.325282   -0.171519    3.963071
H       2.446071   -2.658593    3.873950
H       1.373249   -3.854753    1.985745
H      -1.070900   -2.596177   -0.184544
H       0.447971   -2.598252   -1.082741
H       0.088525   -3.916629    0.030351
