17

C       0.099961    1.564921    0.129322
C      -0.132914    0.061005   -0.090952
C       0.644014   -0.496012   -1.247855
C       0.148271   -0.976843   -2.423511
O       1.138590   -1.387635   -3.252505
C       2.320509   -1.167080   -2.594777
C       2.065550   -0.622180   -1.365824
C       3.514831   -1.515868   -3.248543
C       4.545822   -1.810035   -3.797916
H       1.156410    1.777617    0.321078
H      -0.198795    2.139440   -0.752740
H      -0.477045    1.926912    0.985850
H       0.134558   -0.481912    0.824367
H      -1.200548   -0.123810   -0.254469
H      -0.854927   -1.090978   -2.802209
H       2.810577   -0.350130   -0.634396
H       5.454138   -2.069710   -4.282519
