21

C       0.017243    1.627245    0.008950
C       1.537578    1.333778    0.032819
C       1.163454    0.078053    0.900842
C      -0.077352    0.072177   -0.031695
C      -1.438739   -0.611970   -0.069574
C      -1.736835   -0.534009   -1.566148
C      -0.639177   -0.301577   -2.295232
C       0.575443   -0.259652   -1.398007
C       1.735703    0.780605   -1.402172
H      -0.356511    2.027595    0.955325
H      -0.388403    2.197480   -0.831049
H       2.259269    2.069231    0.390408
H       1.825759   -0.793160    0.877920
H       0.944109    0.357863    1.934356
H      -1.389537   -1.660909    0.259251
H      -2.196463   -0.119074    0.549347
H      -2.734004   -0.681488   -1.967376
H      -0.608025   -0.243953   -3.377773
H       1.010944   -1.270249   -1.372146
H       1.618847    1.570406   -2.151030
H       2.711651    0.312040   -1.557354
