20

C      -0.068579    1.559061    0.003850
C      -0.020334    0.050660    0.112760
C       1.278676   -0.703784   -0.158222
C       0.714164   -0.630134    1.220090
C       1.367267   -0.121108    2.497315
C       0.131630    0.104149    3.417322
C      -0.080641   -1.405338    3.306025
C       1.332700   -1.640028    2.935111
N       0.273402   -1.868561    1.909424
H       0.850105    2.013970    0.389583
H      -0.179908    1.877590   -1.038532
H      -0.907960    1.977300    0.570619
H      -0.919602   -0.464588   -0.216549
H       1.218855   -1.654813   -0.676567
H       2.165429   -0.117588   -0.382303
H       2.214696    0.561290    2.503970
H       0.422862    0.376215    4.435341
H      -0.649524    0.780880    3.056001
H      -0.762411   -2.041387    3.855095
H       2.076537   -2.372460    3.218852
