23

C      -0.364476    1.286371    0.529339
O      -0.166070   -0.065324    0.196407
C      -1.372644   -0.790912    0.087712
C      -1.037993   -2.241492   -0.256585
C      -0.221738   -2.970067    0.852368
C      -1.167075   -3.962534    1.513781
C      -2.469868   -3.445638    2.073148
C      -2.432895   -4.050902    0.691493
C      -2.307809   -3.111150   -0.499888
H       0.619426    1.758488    0.588740
H      -0.964742    1.812089   -0.230712
H      -0.871665    1.399748    1.501048
H      -1.942650   -0.718075    1.029755
H      -2.008030   -0.355826   -0.703545
H      -0.441409   -2.192265   -1.172653
H       0.614587   -3.516396    0.403004
H       0.215732   -2.251088    1.552351
H      -0.737250   -4.846812    1.972198
H      -2.938934   -4.031815    2.856612
H      -2.616927   -2.376149    2.183744
H      -2.938520   -4.998390    0.539148
H      -3.202043   -2.492019   -0.644662
H      -2.188035   -3.702376   -1.414065
