17

C      -0.069210    1.519331    0.168759
C      -0.183842    0.023717    0.440077
N       1.093381   -0.510495    0.950921
C       1.091778   -1.888691    1.242335
C       1.261678   -2.414553    2.504069
O       1.469115   -1.826615    3.689647
N       1.185854   -3.746409    2.337340
N       0.978337   -4.053986    1.019127
N       0.922404   -2.929001    0.374332
H       0.680042    1.723717   -0.604953
H      -1.023854    1.921211   -0.182525
H       0.224873    2.059595    1.073728
H      -0.945934   -0.166079    1.204324
H      -0.507389   -0.505096   -0.468278
H       1.834733   -0.286430    0.292995
H       1.507461   -0.876187    3.502203
H       1.267536   -4.479210    3.022821
