17

C      -0.108570    1.505403    0.027974
C       0.025771   -0.022815    0.014945
C      -1.286392   -0.648399    0.195708
N      -2.323545   -1.137681    0.344376
C       0.901780   -0.520931   -1.150346
C       2.130706   -0.433503   -0.329257
C       1.188609   -0.544443    0.930667
C       1.209287   -2.053499    0.647460
N       1.639706   -1.768249   -0.765015
H       0.877917    1.967031   -0.069398
H      -0.734378    1.850531   -0.799931
H      -0.565265    1.845863    0.961439
H       0.749248   -0.345553   -2.206974
H       3.123702   -0.047987   -0.513072
H       1.321320   -0.111564    1.920179
H       2.027764   -2.571568    1.151820
H       0.279332   -2.620371    0.755222
