19

C      -0.118221    1.482464    0.208561
C      -0.194787   -0.029832    0.199968
O      -0.516880   -0.675469    1.171402
C       0.171040   -0.742741   -1.089610
C      -0.602535   -0.390869   -2.302368
O       0.727365    0.085205   -2.119661
C       0.769680   -2.106893   -0.923182
C       1.486780   -2.775616   -2.063535
C       2.271102   -2.260484   -0.882721
H       0.927130    1.791835    0.100415
H      -0.655959    1.924638   -0.634847
H      -0.519450    1.856191    1.151032
H      -0.727510   -1.156327   -3.065554
H      -1.381967    0.368259   -2.262938
H       0.201099   -2.730928   -0.243758
H       1.363970   -3.846060   -2.183257
H       1.582566   -2.220735   -2.990330
H       2.870557   -1.371224   -1.043417
H       2.691041   -2.970821   -0.180106
