18

N       0.117592    1.313146   -0.199316
C       0.076967   -0.074656   -0.069781
N      -1.073289   -0.738768   -0.073147
N      -0.706356   -2.027377    0.153474
C       0.629535   -2.179964    0.284197
C       1.197272   -0.928577    0.144231
C       2.616983   -0.521858    0.228327
C       3.722767   -1.456926   -0.190882
C       3.422405   -0.242806   -1.030805
H       0.912214    1.632625   -0.737689
H      -0.745485    1.680729   -0.578838
H      -1.418227   -2.734217    0.192292
H       1.078350   -3.143114    0.471520
H       2.854215    0.132218    1.065009
H       4.634613   -1.466238    0.395460
H       3.441468   -2.424033   -0.592539
H       2.931337   -0.402916   -1.984446
H       4.128420    0.580418   -1.016719
