23

C       0.027547    1.432783    0.037057
O      -0.014177    0.027692   -0.000549
C       0.648596   -0.512201   -1.122884
C       0.538671   -2.030689   -1.069006
C       1.217611   -2.701759   -2.266908
C       1.231860   -4.249213   -2.200154
C      -0.180861   -4.867250   -2.232095
C       2.051432   -4.791535   -3.283718
C       2.711599   -5.224384   -4.190770
H       1.061246    1.811780    0.084773
H      -0.458617    1.881488   -0.844342
H      -0.506506    1.753693    0.934925
H       0.199181   -0.127702   -2.055818
H       1.708772   -0.202728   -1.128973
H       0.991635   -2.379571   -0.132515
H      -0.523417   -2.293017   -1.021847
H       0.725750   -2.397064   -3.199493
H       2.255172   -2.355312   -2.340170
H       1.703657   -4.534677   -1.248694
H      -0.122920   -5.958436   -2.212290
H      -0.770895   -4.541599   -1.371481
H      -0.707942   -4.573597   -3.145341
H       3.301382   -5.613385   -4.983299
