14

C      -0.016305    1.445518    0.013889
N      -0.073141   -0.001126   -0.026708
C      -1.228243   -0.704816   -0.002527
N      -1.114052   -2.057157    0.017021
C      -2.252858   -2.712484    0.023712
C      -3.462298   -2.006878    0.011063
F      -4.613886   -2.668763    0.015077
N      -3.519189   -0.701068   -0.000258
N      -2.381509   -0.011245   -0.004505
H       1.027950    1.752426   -0.067449
H      -0.580983    1.881015   -0.815642
H      -0.434018    1.844332    0.945557
H       0.770057   -0.544209    0.039793
H      -2.233378   -3.799462    0.040773
