20

C       0.629484    1.448336    0.180031
C       0.049703    0.054729    0.039288
C       0.368558   -0.748439   -1.240907
C       1.045631   -1.762371   -0.290096
C       0.387542   -3.127077   -0.165979
C       2.570233   -1.859307   -0.387748
O       3.111607   -2.322810    0.832441
O       0.731674   -0.923549    0.868918
H       1.689376    1.464571   -0.092588
H       0.093463    2.150999   -0.467732
H       0.535507    1.797985    1.213085
H      -1.019744    0.070527    0.288348
H      -0.495671   -1.128763   -1.787598
H       1.044828   -0.248475   -1.939037
H       0.511187   -3.696483   -1.093988
H       0.851293   -3.690583    0.647948
H      -0.681612   -3.024161    0.038777
H       2.866590   -2.570576   -1.167252
H       2.981088   -0.873191   -0.657928
H       2.722717   -1.755762    1.511671
