20

C      -0.091300    1.536127   -0.001765
C      -0.006453    0.021887    0.058895
C      -1.208560   -0.675495   -0.553627
C       1.361563   -0.652935   -0.190002
C       2.536697    0.119785   -0.452357
N       3.486652    0.754004   -0.646135
C       0.697433   -0.648077    1.203887
C       1.323068    0.115473    2.348592
O       0.128519   -1.865606    1.593050
H       0.826714    2.031577    0.317983
H      -0.292622    1.856557   -1.029336
H      -0.913143    1.896672    0.626318
H      -1.308889   -0.398818   -1.608375
H      -1.132686   -1.760145   -0.477600
H      -2.125640   -0.368458   -0.038843
H       1.322613   -1.607020   -0.705222
H       1.820739    1.029764    2.024106
H       0.560161    0.370323    3.090489
H       2.080655   -0.506388    2.840960
H       0.808693   -2.384531    2.037217
