17

N      -0.047030    1.158267    0.558320
C       0.000491    0.031743   -0.007524
O       1.181915   -0.604490   -0.271186
C       1.238069   -1.661117   -1.236390
C       0.028255   -2.542941   -1.121916
C       0.069225   -3.944791   -1.593990
N      -0.007785   -3.646971   -0.153539
C      -1.212141   -1.698636   -1.203303
O      -1.155932   -0.607277   -0.278147
H       0.899695    1.485223    0.739272
H       1.305163   -1.225414   -2.243626
H       2.167017   -2.202201   -1.034612
H      -0.820778   -4.402620   -2.017453
H       1.004648   -4.313108   -2.009430
H       0.901881   -3.769360    0.285815
H      -1.341156   -1.298805   -2.219049
H      -2.099251   -2.271884   -0.930240
