18

N       0.800138   -0.801057    1.002770
C       0.376576    0.161047    0.518850
C      -0.129984    1.383996   -0.128063
C      -1.089921    2.175853    0.847083
N      -0.457474    3.312034    1.520043
C       0.076385    4.239372    0.455205
C       1.309178    3.325169    0.338167
C       0.985074    2.962717    1.815035
N       0.972334    2.248080   -0.601857
H      -0.715669    1.050210   -0.992646
H      -1.940620    2.554573    0.273976
H      -1.478541    1.479754    1.595273
H      -0.552298    4.347101   -0.432560
H       0.287782    5.219218    0.891774
H       2.282934    3.740151    0.067823
H       1.393355    3.679848    2.532246
H       1.166809    1.946908    2.172657
H       1.786900    1.680793   -0.804477
