15

C       0.041910   -1.108599   -0.014057
C       0.002910    0.094862   -0.015189
C      -0.056142    1.508901    0.024017
C       0.134512    2.435561   -1.194479
C       1.064490    2.544215   -0.015468
C       0.062973    3.560263    0.608035
C      -0.770306    3.606273   -0.714358
O      -1.934441    3.041955   -0.073639
C      -1.003923    2.446213    0.847729
H       0.076812   -2.169485   -0.019606
H       0.308663    2.041140   -2.185448
H       2.131543    2.403456    0.068319
H       0.258423    4.401485    1.266383
H      -0.972726    4.464674   -1.352103
H      -1.435389    2.109336    1.787888
