16

C      -0.030971   -3.837707   -0.122158
C      -0.014152   -2.631117   -0.072796
C       0.003816   -1.272660   -0.016619
C       0.026108   -0.062558    0.037783
C      -0.000778    1.379354    0.076304
C       0.029549    2.154576    1.427507
C       1.508144    1.722065    1.499784
N       1.369001    2.130693    0.016664
C       0.563634    3.320470    0.575154
H      -0.043897   -4.898379   -0.167610
H      -0.695801    1.766171   -0.676306
H      -0.735529    2.155180    2.210533
H       2.198397    2.361978    2.054379
H       1.735172    0.664684    1.643473
H      -0.104417    3.781259   -0.157689
H       1.192280    4.065083    1.067885
