15

C      -0.149209    1.570341   -0.032134
C       0.074947    0.048880    0.011099
C       0.852964   -0.464411   -1.145210
C       2.033254   -1.088069   -1.264362
N       2.233911   -1.312869   -2.628761
C       1.171161   -0.823743   -3.352001
O       0.972877   -0.825335   -4.535889
O       0.307928   -0.291585   -2.408501
H       0.804036    2.106722   -0.006482
H      -0.673927    1.857215   -0.947064
H      -0.749299    1.893911    0.823055
H       0.607770   -0.232726    0.925603
H      -0.898011   -0.458698    0.044558
H       2.742481   -1.391523   -0.513991
H       3.017192   -1.763721   -3.065997
