14

O      -0.275696    1.357139   -0.158465
C      -0.085527   -0.014384   -0.066394
C      -0.489276   -0.728526    1.214231
C      -0.931819    0.077955    2.306245
C      -1.268816    0.824430    3.188374
C      -1.375816   -0.818507   -0.061607
O      -2.552692   -0.102965   -0.115217
C      -1.407072   -2.097225   -0.728619
N      -1.394596   -3.130345   -1.248002
H      -0.288924    1.725213    0.737712
H       0.770518   -0.386555   -0.620190
H       0.072334   -1.624180    1.459415
H      -1.592905    1.442318    3.989814
H      -2.305111    0.796067   -0.384430
