16

C      -0.401925    1.447406    0.092860
N      -0.191890    0.027703   -0.041601
N      -0.487289   -0.638474   -1.210244
C      -0.171355   -1.876162   -0.974929
C      -0.324626   -3.006745   -1.939481
O       0.832701   -3.829839   -1.981970
N       0.322855   -2.037324    0.295480
C       0.336381   -0.794659    0.937439
O       0.713340   -0.514501    2.056065
H       0.187408    1.999986   -0.645151
H      -1.459100    1.698100   -0.035648
H      -0.079652    1.721034    1.098884
H      -1.137210   -3.669673   -1.620793
H      -0.596372   -2.589083   -2.916697
H       1.553931   -3.306748   -2.348714
H       0.699389   -2.881689    0.690719
