18

O      -0.588824    0.738789    0.645057
C       0.166410    0.992781   -0.259930
C       1.301112    1.982809   -0.183201
C       1.213611    3.125002   -1.244198
C       1.796702    4.310125   -0.482184
C       1.145157    4.792168    0.762303
C       0.256023    3.729055    1.388689
C       1.430496    2.748701    1.129509
N       2.377857    3.910181    0.823844
H       0.061036    0.487039   -1.248105
H       2.227193    1.419031   -0.367442
H       1.798028    2.899906   -2.139392
H       0.182804    3.310643   -1.564802
H       2.399403    5.028827   -1.028650
H       1.185779    5.837591    1.054587
H       0.110570    3.903892    2.456077
H      -0.713774    3.514319    0.932163
H       1.758256    2.146685    1.974963
