15

O      -0.026453    1.387282   -0.215756
C       0.029524   -0.001325    0.085412
C      -1.383154   -0.543996    0.007528
C      -2.082192   -0.595473   -1.401686
C      -2.214088   -2.113358   -1.225334
O      -0.890377   -2.637507   -1.054330
C      -1.548604   -2.073122    0.086919
H       0.874507    1.718533   -0.270639
H       0.661525   -0.545659   -0.629918
H       0.438739   -0.174530    1.094960
H      -2.021047   -0.033246    0.734851
H      -3.038650   -0.068869   -1.412894
H      -1.479906   -0.277110   -2.255343
H      -2.964075   -2.792490   -1.613829
H      -1.652978   -2.707673    0.959923
