16

C       0.088934    1.547473   -0.204242
O       1.533148    1.471515    0.122387
C       1.203817    0.334244    0.980818
C       1.333572   -1.239975    0.978908
C      -0.280947   -1.147533    1.138150
C      -0.018662    0.050558    0.177587
O       0.457899   -0.636527   -1.008270
C       1.440173   -1.553969   -0.501756
H      -0.423397    2.244664    0.466669
H      -0.078792    1.794065   -1.253613
H       1.023328    0.694382    1.998034
H       1.955514   -1.790250    1.684749
H      -0.855564   -1.993820    0.756650
H      -0.589721   -0.873658    2.146341
H       2.427247   -1.325503   -0.920488
H       1.171447   -2.586453   -0.754970
