14

C       0.024587    1.490459    0.012156
C       0.031206   -0.013386    0.018036
N      -0.022579   -0.647487   -1.158822
C      -0.015115   -1.965740   -1.118704
F      -0.068820   -2.573566   -2.291756
N       0.038800   -2.757821   -0.064508
C       0.092534   -2.130768    1.110319
C       0.091603   -0.742783    1.212785
O       0.148526   -0.179353    2.449773
H       0.931805    1.898796    0.476002
H      -0.026362    1.848863   -1.015956
H      -0.837321    1.891330    0.561103
H       0.138199   -2.741113    2.008360
H       0.141188    0.779761    2.371076
