22

C       0.415302    1.424104   -0.320328
C       0.310330   -0.103618   -0.255982
C       1.109814   -0.751237   -1.394950
O       1.173433   -2.159957   -1.262762
C       1.971851   -2.562174   -0.162100
C       1.624941   -1.875945    1.147646
C       0.790668   -0.630868    1.100107
N       0.283860   -1.861661    1.710104
C      -0.795537   -2.627943    1.099196
H       1.449821    1.754534   -0.172193
H       0.078661    1.804099   -1.290614
H      -0.198602    1.892924    0.454799
H      -0.742977   -0.380104   -0.391487
H       0.638605   -0.557252   -2.363548
H       2.128423   -0.325804   -1.422699
H       1.848902   -3.648135   -0.084455
H       3.036454   -2.362885   -0.375857
H       2.420700   -1.958414    1.888529
H       0.989220    0.149976    1.833709
H      -0.747298   -2.714116    0.007085
H      -0.780572   -3.637114    1.523969
H      -1.750541   -2.169445    1.376805
