16

N      -0.023148    1.357820    0.009825
C       1.265104    1.853064    0.000471
C       2.154448    0.815058   -0.013895
C       1.387784   -0.398225   -0.013670
C       0.017493   -0.018932    0.001495
C      -1.016106   -0.956642    0.005865
C      -0.664354   -2.298009   -0.005216
C       0.685322   -2.697480   -0.020304
C       1.708982   -1.763974   -0.024604
H      -0.858297    1.915736    0.020983
H       1.437541    2.918392    0.004973
H       3.229922    0.901484   -0.023562
H      -2.056760   -0.648770    0.017497
H      -1.443270   -3.053140   -0.002200
H       0.923255   -3.755934   -0.028669
H       2.746656   -2.081976   -0.036261
