16

C       0.136716    1.548051   -0.166065
C       0.078327    0.099318   -0.051280
C       0.041023   -1.100605    0.044314
C      -0.022817   -2.539802    0.147286
O       0.042475   -3.014846    1.546377
C      -1.237361   -3.512908    1.505215
O      -1.862901   -3.983587    2.399745
C      -1.433559   -3.199595    0.005345
N      -2.517334   -2.385100   -0.472729
H       1.143321    1.884304   -0.436069
H      -0.555656    1.909954   -0.933685
H      -0.133856    2.027375    0.780799
H       0.767024   -3.025007   -0.431209
H      -1.385580   -4.120903   -0.582993
H      -3.388742   -2.903646   -0.441669
H      -2.628951   -1.558212    0.105326
