20

C      -0.013216    1.454481   -0.072945
C       0.038619   -0.054650    0.094671
C      -1.081664   -0.767185   -0.641475
N       1.381188   -0.636392    0.095360
C       0.627331   -0.648324    1.368599
C       1.228684    0.173576    2.491549
O       2.437442   -0.420272    2.936025
C       0.149843   -1.989914    1.826418
O       0.153293   -2.985898    1.140287
H       0.893700    1.939053    0.288175
H      -0.113846    1.695411   -1.136989
H      -0.877985    1.880408    0.446607
H      -0.987577   -0.569613   -1.715322
H      -1.063112   -1.846202   -0.489956
H      -2.057316   -0.383736   -0.323947
H       1.341820   -1.587072   -0.277719
H       1.380669    1.214217    2.185509
H       0.554704    0.179385    3.356249
H       2.998851   -0.498996    2.154910
H      -0.202758   -2.022643    2.878621
