17

C      -0.020190    1.431775   -0.091728
C       0.004624   -0.058523    0.045985
N      -0.030928   -0.835966   -1.046651
N       0.006785   -2.081859   -0.552950
C      -0.002475   -3.389085   -1.176628
C       0.060822   -4.283392    0.046349
C       0.098459   -3.545355    1.170837
C       0.064539   -2.137037    0.805003
C       0.065175   -0.824832    1.241180
H       0.882346    1.889587    0.328540
H      -0.084009    1.705513   -1.146987
H      -0.878185    1.869369    0.430638
H      -0.912252   -3.546627   -1.768841
H       0.857936   -3.523503   -1.843601
H       0.072094   -5.361758   -0.024012
H       0.146015   -3.918262    2.184095
H       0.102695   -0.460091    2.254666
