13

C      -0.007882    1.470599   -0.018865
N      -0.005138    0.007158   -0.008502
C      -0.015271   -0.686887    1.201354
O      -0.026435   -0.140212    2.274660
C       0.007428   -0.652243   -1.209381
N       0.016964   -0.061787   -2.376272
O       0.027358   -1.105055   -3.259051
N       0.023632   -2.290873   -2.562902
N       0.011624   -2.032752   -1.331050
H       0.885146    1.845351   -0.525499
H      -0.891634    1.841814   -0.543999
H      -0.019276    1.795275    1.019810
H      -0.011861   -1.776512    1.058251
