19

C      -0.005613    1.491998   -0.136713
C      -0.032788    0.000354   -0.057701
C       0.828205   -1.040290   -0.762645
C       0.824739   -0.957448    0.759921
C      -0.344696   -1.982097    0.809761
C      -0.342106   -2.065119   -0.709721
C      -1.217997   -1.035342   -0.008549
C      -2.700418   -0.874192   -0.010199
O      -3.234202   -0.423136   -1.252485
H       1.027921    1.856291   -0.142719
H      -0.485303    1.862516   -1.051986
H      -0.512059    1.955152    0.718600
H       1.643949   -0.896001   -1.459025
H       1.637607   -0.741577    1.441157
H      -0.645499   -2.717739    1.544483
H      -0.637639   -2.876843   -1.361104
H      -3.168328   -1.848087    0.175276
H      -3.010501   -0.207904    0.811814
H      -2.839091    0.432810   -1.445067
