16

C      -0.009455    1.564228    0.059851
C      -0.030899    0.037182   -0.020259
C       0.734205   -0.495774   -1.249633
O       2.092381   -0.061822   -1.268508
C       0.635384   -1.953577   -1.344761
C       0.575011   -3.162333   -1.384992
C       0.505386   -4.520255   -1.434256
C       0.443952   -5.725482   -1.476446
H       1.018103    1.935765    0.071786
H      -0.516555    2.011661   -0.802186
H      -0.515619    1.914077    0.964066
H       0.417407   -0.402489    0.879936
H      -1.060513   -0.335447   -0.066746
H       0.293461   -0.052070   -2.152231
H       2.561418   -0.547385   -0.580193
H       0.389298   -6.785104   -1.515242
