27

C       0.083847    1.486376   -0.149876
C       0.069863   -0.033592    0.061908
C       0.795821   -0.417282    1.358488
C      -1.357854   -0.579954    0.046275
C      -2.182953   -0.487074   -1.268147
C      -2.721208   -1.932539   -1.017265
C      -4.101219   -1.923530   -0.354463
C      -2.703281   -2.875640   -2.216041
C      -1.572353   -2.119653    0.025399
H       1.107985    1.872976   -0.182009
H      -0.409392    1.766134   -1.086343
H      -0.438188    1.998650    0.667500
H       0.609066   -0.497583   -0.778195
H       0.812935   -1.502280    1.503425
H       1.832267   -0.063597    1.352346
H       0.299165    0.027323    2.229526
H      -1.916195   -0.130386    0.877222
H      -2.925587    0.312148   -1.349562
H      -1.532351   -0.445411   -2.148937
H      -4.872831   -1.593551   -1.059842
H      -4.374521   -2.925764   -0.004232
H      -4.131351   -1.250588    0.509034
H      -1.719490   -2.889000   -2.697221
H      -2.942276   -3.903058   -1.915610
H      -3.439887   -2.572320   -2.969948
H      -0.711766   -2.639408   -0.410555
H      -1.831949   -2.611947    0.967283
