19

O      -0.086828    1.358800    0.090851
C       0.017001   -0.035222    0.066079
C       0.896005   -0.728739    1.103908
C       0.580252   -2.150023    0.694830
C       0.320191   -2.174689   -0.803897
C      -0.846345   -2.190329    0.171954
C      -1.370907   -0.757228   -0.010125
C      -1.319606   -0.534642   -1.550984
C       0.208880   -0.738782   -1.335508
H       0.776397    1.727556   -0.124614
H       1.957269   -0.473467    0.989847
H       0.583543   -0.487978    2.125751
H       1.012738   -3.008006    1.194762
H       0.582493   -3.017992   -1.429170
H      -1.497968   -3.043451    0.305894
H      -2.208493   -0.425623    0.603541
H      -1.846380   -1.247809   -2.190581
H      -1.567282    0.492021   -1.827468
H       0.954863   -0.392444   -2.053217
