17

O      -0.898757    1.164512    0.105783
C       0.225301    0.764700   -0.038633
C       1.443398    1.684582   -0.037788
O       2.582141    0.868655   -0.182787
C       3.783242    1.618328   -0.284654
C       3.849701    2.411069   -1.594770
C       2.531530    3.107975   -1.886343
O       1.506625    2.283743   -2.458300
C       1.326857    2.743574   -1.123376
H       0.474210   -0.307844   -0.184527
H       1.456906    2.211364    0.934937
H       3.864793    2.303756    0.575116
H       4.600819    0.896274   -0.217016
H       4.657623    3.148247   -1.532527
H       4.078370    1.743387   -2.432012
H       2.586768    4.103123   -2.326073
H       0.517583    3.456847   -0.974763
