17

C      -0.277538    1.559153    0.301545
C      -0.047208    0.099078    0.079823
C       0.140718   -0.577032   -1.104558
N       0.332944   -1.896975   -0.748287
C       0.237278   -1.964295    0.606688
N       0.020459   -0.783795    1.138665
C       0.189443   -0.162247   -2.514817
C       1.300384   -0.524443   -3.416880
O       0.054307   -1.223519   -3.476529
H       0.592286    2.034593    0.769324
H      -0.478309    2.083227   -0.637368
H      -1.128475    1.715358    0.971756
H       0.390236   -2.654919   -1.409291
H       0.328412   -2.895438    1.145952
H      -0.372901    0.739094   -2.754790
H       1.524050    0.102993   -4.278577
H       2.139572   -1.094282   -3.021265
