20

O      -0.014902   -0.046096    0.004472
C      -0.002671    1.169329    0.010151
N      -1.118743    1.960554    0.029193
C      -0.928610    3.410802    0.033988
C      -0.103478    3.783250    1.283003
C       1.212094    2.953633    1.262256
C       1.240058    2.060212   -0.002340
C       1.177727    2.966204   -1.256716
C      -0.137666    3.795998   -1.233147
H      -2.029528    1.529451    0.039843
H      -1.908506    3.892800    0.049754
H       0.100949    4.858756    1.281320
H      -0.687970    3.565935    2.181272
H       2.089323    3.609123    1.253224
H       1.292550    2.330768    2.157419
H       2.121954    1.418543   -0.017582
H       2.055064    3.621556   -1.265234
H       1.233426    2.352277   -2.159904
H      -0.746463    3.587951   -2.117356
H       0.067042    4.871430   -1.225976
