17

C      -0.082741    1.460669    0.093611
N       0.398574    0.103634   -0.132279
C       0.772279   -0.651620    0.965499
C       0.657576   -1.994123    1.137251
N       0.122468   -3.001979    0.353571
O       1.284210   -2.283704    2.385450
C       1.675104   -1.085073    2.829383
N       2.240182   -1.035520    4.081568
N       1.419944   -0.073213    2.053185
H       0.656664    2.005011    0.683046
H      -0.197072    1.961472   -0.871531
H      -1.044236    1.507400    0.629222
H      -0.181711   -0.436206   -0.760489
H      -0.617120   -3.530115    0.805451
H       0.806323   -3.653430   -0.019816
H       2.745076   -1.868788    4.345934
H       2.758996   -0.184308    4.240340
