17

C      -0.070766    1.195069    0.333186
C       1.174274    0.458616   -0.046356
N      -0.105812    0.075111   -0.610807
C      -0.690503   -1.126752   -0.243899
N      -0.047189   -2.194430    0.047211
C      -1.011920   -3.292747    0.222169
C      -2.401403   -2.681030    0.097111
O      -2.650338   -1.663515    1.072650
C      -2.187519   -1.265299   -0.233678
H      -0.470075    1.022932    1.329123
H      -0.282304    2.171350   -0.092226
H       1.873084    0.910401   -0.743591
H       1.608024   -0.220024    0.681506
H      -0.844247   -4.057022   -0.547089
H      -0.859906   -3.771010    1.196304
H      -3.268404   -3.250803   -0.224945
H      -2.850876   -0.630686   -0.811939
