18

C      -0.186292    1.326846   -0.765240
N      -0.199768   -0.104055   -0.520256
C      -1.146100   -0.618254    0.155550
N      -2.213688    0.035558    0.746751
C      -3.302091   -0.666420    1.271761
N      -3.536304   -1.903072    1.121997
C      -2.581970   -2.651437    0.303578
C      -1.147320   -2.116830    0.406698
O      -0.290486   -2.776592   -0.481274
H       0.584561    1.561530   -1.502531
H      -1.146358    1.700637   -1.153036
H       0.052042    1.893794    0.147379
H      -2.210801    1.041449    0.806870
H      -3.991086   -0.041440    1.839267
H      -2.603243   -3.702702    0.602232
H      -2.902499   -2.614584   -0.747500
H      -0.811645   -2.256187    1.451469
H       0.251956   -2.071721   -0.874101
