12

O      -0.074435    1.225908    0.009402
N       1.149636    1.832640    0.000902
C       2.012122    0.832316   -0.012720
C       3.431287    0.794761   -0.026524
C       3.990994   -0.450744   -0.038564
N       3.297936   -1.646034   -0.038332
C       1.995811   -1.634457   -0.025794
C       1.283744   -0.396708   -0.012327
N      -0.008255   -0.128364    0.001498
H       4.028806    1.697162   -0.027415
H       5.070357   -0.562871   -0.049512
H       1.465755   -2.583307   -0.025796
