25

C      -0.146369    1.596153    0.085834
C       0.004484    0.075651   -0.005744
C       0.660561   -0.539473    1.234054
C       0.876913   -2.055461    1.126289
O       1.679720   -2.387740   -0.011452
C       1.456251   -2.631582    2.401517
C       0.561896   -3.172309    3.495511
C       1.437665   -4.112336    2.703323
C       0.846557   -5.131272    1.752708
H       0.827994    2.085391    0.198031
H      -0.620737    2.004911   -0.811981
H      -0.759455    1.885398    0.947032
H      -0.982660   -0.382690   -0.153578
H       0.597840   -0.193146   -0.886018
H       1.635133   -0.059434    1.413529
H       0.052933   -0.333998    2.125187
H      -0.089088   -2.529885    0.917025
H       2.576871   -2.087127    0.171537
H       2.342504   -2.097389    2.744016
H       0.809298   -2.955925    4.529057
H      -0.505364   -3.200371    3.294100
H       2.319436   -4.470984    3.229183
H      -0.086125   -4.778703    1.303743
H       1.537334   -5.357748    0.934550
H       0.622516   -6.065118    2.279925
