21

C      -0.083876    1.545891   -0.079382
C      -0.088337    0.053593   -0.011358
O       0.656277   -0.643192   -1.020366
C      -0.324820   -1.731433   -1.008457
C       0.309124   -3.039352   -0.545514
C       1.261837   -2.766965    0.630497
C       0.625461   -1.904170    1.739618
C      -0.274241   -0.785550    1.234433
C      -1.174933   -0.996094    0.033589
H       0.924444    1.936188    0.100811
H      -0.409172    1.892361   -1.065534
H      -0.749809    1.968542    0.678430
H      -0.800214   -1.812855   -1.991001
H      -0.494900   -3.732093   -0.262858
H       0.861714   -3.509910   -1.366573
H       1.611778   -3.711853    1.059369
H       2.139357   -2.250095    0.234614
H       0.010038   -2.543322    2.388152
H       1.416076   -1.494683    2.380155
H      -0.763041   -0.218992    2.025385
H      -2.254679   -0.919145    0.041748
