22

C      -0.507897    1.316989    0.020250
N      -0.017759   -0.050921    0.100314
C       1.366959   -0.289687   -0.287215
C       0.946866   -0.438575    1.136087
C       1.475372    0.489735    2.217324
C       0.462391    0.567335    3.364341
O       0.960267    1.454736    4.368833
C       2.853160   -0.003307    2.707862
O       3.536005    0.937206    3.507843
H       0.240118    2.092160    0.247828
H      -0.869694    1.493289   -0.997827
H      -1.354999    1.444028    0.702575
H       1.550338   -1.159318   -0.913202
H       1.983026    0.577876   -0.525666
H       0.768944   -1.453687    1.494826
H       1.623362    1.498444    1.816799
H      -0.508945    0.921125    2.991216
H       0.311668   -0.441726    3.779522
H       0.396227    1.391055    5.144817
H       2.720107   -0.966529    3.234309
H       3.493082   -0.201590    1.841202
H       2.895590    1.249917    4.160712
