19

O      -0.204624    1.375090    0.149254
C      -0.083363   -0.003989   -0.012789
C      -0.523645   -0.655507   -1.298222
C      -1.306113   -0.879824   -0.013829
C      -0.904424   -1.999484    0.967667
C       0.131782   -2.971364    0.354568
C       1.408238   -2.071537    0.355445
C       0.843300   -0.768314    0.967604
O      -0.095478   -1.288574    1.927725
H       0.466752    1.800515   -0.394747
H      -0.998255    0.011948   -2.011633
H       0.045644   -1.456491   -1.755037
H      -2.294166   -0.443072    0.068329
H      -1.744604   -2.471484    1.475712
H       0.258963   -3.836587    1.008065
H      -0.151012   -3.334755   -0.635910
H       2.177497   -2.480368    1.013543
H       1.850617   -1.933013   -0.633979
H       1.563568   -0.118895    1.464099
