15

N       0.923778   -0.021916   -0.001915
C      -0.236279    0.416785   -0.271307
N      -1.347105   -0.155132    0.329450
C      -2.638278    0.290346    0.099212
O      -2.900752    1.218089   -0.640727
N      -3.597245   -0.397960    0.817097
C      -4.999037   -0.148732    0.550688
C      -5.648380   -1.252714   -0.171807
N      -6.150432   -2.141131   -0.713116
H       1.628047    0.496810   -0.522442
H      -0.509261    1.227771   -0.948496
H      -1.155122   -0.905898    0.977414
H      -3.355426   -1.266559    1.267235
H      -5.549036    0.031692    1.480991
H      -5.043651    0.761801   -0.053710
