19

C       0.045214    1.498824   -0.209350
N       0.045959    0.052442    0.015781
C       0.562055   -0.733141   -1.103710
C       2.032260   -0.662799   -1.217870
N       3.185109   -0.588592   -1.272147
C       0.061091   -2.199464   -0.975015
O       0.149136   -2.665290    0.354907
C      -1.378195   -2.309043   -1.500957
O      -1.493563   -1.921277   -2.859941
H       1.034769    1.908926   -0.462846
H      -0.644902    1.738815   -1.024247
H      -0.314714    1.998351    0.693910
H       0.605081   -0.158825    0.836236
H       0.136243   -0.338377   -2.033136
H       0.713313   -2.851158   -1.567250
H      -0.455565   -2.120485    0.874765
H      -1.736585   -3.332134   -1.326326
H      -2.016883   -1.623096   -0.933282
H      -1.082798   -2.601682   -3.403448
