22

C      -0.178686    1.648828   -0.198769
C      -0.110911    0.136166   -0.145452
C      -1.270334   -0.477860    0.632447
O      -1.116980   -0.249166    2.022035
C       0.550330   -0.713869   -1.174049
C       1.490682   -0.100441   -2.202701
C       2.612358    0.591461   -1.384339
C       2.406763    0.113722    0.079909
N       1.128352   -0.612326    0.185052
H       0.693877    2.120982   -0.648258
H      -1.056909    1.958127   -0.776378
H      -0.300013    2.039830    0.816546
H      -2.221313   -0.017434    0.342936
H      -1.332516   -1.553892    0.412472
H      -0.242974   -0.602010    2.233939
H       0.096738   -1.669105   -1.431302
H       1.897326   -0.897141   -2.832792
H       0.978338    0.599916   -2.869862
H       3.603687    0.315804   -1.753723
H       2.546000    1.679162   -1.462289
H       3.193802   -0.588704    0.372413
H       2.433776    0.942108    0.795611
