19

C      -0.124217    1.508532   -0.225129
C      -0.031376    0.021408    0.000903
N       1.296121   -0.598553   -0.133241
C       0.646095   -0.592932    1.190712
C       1.306333    0.179808    2.266385
C       2.508439    0.848317    2.175933
N       2.765148    1.423263    3.394652
C       1.749605    1.133828    4.270040
C       0.829304    0.363416    3.600157
H       0.704024    2.025656    0.264213
H      -0.092441    1.741021   -1.295098
H      -1.063210    1.901785    0.179788
H      -0.874321   -0.549085   -0.389706
H       1.225063   -1.518215   -0.558608
H       0.203556   -1.531104    1.525595
H       3.188474    0.937242    1.345704
H       3.580252    1.967561    3.614160
H       1.768588    1.496117    5.285323
H      -0.088015   -0.028886    4.013135
