17

O       0.144789    1.065973   -0.976561
C      -0.205909    0.380869    0.219956
C      -1.693777    0.080559    0.141200
N      -1.942547   -0.804206   -0.995587
C      -3.357839   -1.072217   -1.243297
C      -4.171158    0.102056   -1.612412
C      -4.789508    1.091780   -1.896583
C      -3.478035   -2.117774   -2.280154
N      -3.572612   -2.935509   -3.089426
H       1.102964    1.089953   -1.047398
H       0.350721   -0.561935    0.316158
H      -0.003894    0.996571    1.109225
H      -2.008897   -0.424529    1.062756
H      -2.247304    1.030942    0.073184
H      -1.522045   -0.386149   -1.820843
H      -3.772878   -1.499486   -0.318823
H      -5.343790    1.960446   -2.155768
