18

N      -0.014231    1.321502   -0.377492
C       0.071248    0.051581    0.082946
O       1.091303   -0.459622    0.510750
C      -1.248374   -0.724417    0.072022
O      -2.248141    0.040937   -0.596818
C      -1.111875   -2.139269   -0.542160
C      -2.054339   -3.003070    0.337364
O      -2.676839   -2.102694    1.261320
C      -1.723049   -1.076731    1.493819
H       0.819445    1.883478   -0.409250
H      -0.885050    1.662966   -0.746761
H      -3.099433   -0.340631   -0.350468
H      -1.410051   -2.113309   -1.591749
H      -0.076352   -2.474064   -0.471950
H      -2.849522   -3.501921   -0.221870
H      -1.485871   -3.766216    0.886533
H      -0.876320   -1.428566    2.099915
H      -2.221810   -0.244174    1.995325
