12

N       0.044151   -1.178632   -0.048069
C       0.026041   -0.021133   -0.021977
C      -0.005286    1.398600    0.018849
C       0.281019    2.291268   -1.185662
C       1.118333    2.441827    0.034074
O       0.469453    3.229786    1.020134
C      -0.601394    2.256834    1.140187
H       0.746593    1.771908   -2.016494
H      -0.429718    3.068496   -1.450928
H       2.194435    2.328227    0.086635
H      -1.590076    2.692933    0.964168
H      -0.566655    1.766126    2.116987
