21

C      -0.335560    1.476923   -0.136417
C      -0.038610   -0.000822    0.007970
C       1.323473   -0.575593   -0.306246
O       2.344772    0.323838   -0.628851
C       3.284570    0.537671    0.414933
C       2.594686    1.143095    1.635878
C       1.534503    0.175704    2.192142
O       0.562614    0.840817    2.996552
C       0.807526   -0.605928    1.116599
H       0.582291    2.057475   -0.246111
H      -0.938092    1.650940   -1.033969
H      -0.886197    1.858137    0.727484
H      -0.868888   -0.642798   -0.275709
H       1.395594   -1.509539   -0.860870
H       3.788034   -0.405846    0.682200
H       4.037925    1.216658    0.005772
H       3.333355    1.373060    2.414126
H       2.115673    2.083924    1.348819
H       2.067570   -0.571125    2.804580
H       1.028482    1.292130    3.708913
H       0.453617   -1.570837    1.466931
