22

C       0.166564    1.582847    0.198431
C       0.095446    0.082616   -0.022881
C       0.726801   -0.554923   -1.295226
O       1.704733    0.212187   -1.956843
C       1.243062   -1.673452   -0.335163
C       2.690011   -2.158657   -0.440827
O       3.216707   -2.500527    0.832254
N       0.996778   -0.756681    0.806643
C       0.440471   -1.324949    2.022694
H       1.184085    1.962830    0.070420
H      -0.485162    2.108380   -0.506666
H      -0.158126    1.837546    1.212714
H      -0.951093   -0.256110    0.070915
H       0.028120   -0.873942   -2.069163
H       2.312050    0.562922   -1.296526
H       0.547971   -2.528537   -0.324980
H       2.748799   -3.059361   -1.059397
H       3.308091   -1.390826   -0.928232
H       3.149463   -1.696502    1.360980
H       1.136946   -2.055712    2.441165
H       0.275408   -0.537452    2.765722
H      -0.523701   -1.837080    1.844865
