21

C      -0.194570    1.508805   -0.109954
C      -0.082316   -0.005161   -0.066102
O      -1.384866   -0.552768    0.023680
C      -1.407009   -1.964751    0.051235
C      -2.862615   -2.400561    0.034583
N      -3.493770   -1.946911   -1.199746
C      -4.930937   -2.172121   -1.214449
C      -5.534098   -1.664411   -2.450508
N      -6.016674   -1.247330   -3.413304
H       0.798935    1.961849   -0.176175
H      -0.778301    1.825964   -0.978830
H      -0.687971    1.884191    0.790996
H       0.424529   -0.384318   -0.968786
H       0.519767   -0.325109    0.800674
H      -0.884199   -2.375741   -0.826940
H      -0.907561   -2.347431    0.955988
H      -2.911310   -3.495855    0.083352
H      -3.361142   -2.009267    0.940506
H      -3.294950   -0.957354   -1.310021
H      -5.123834   -3.251405   -1.158571
H      -5.470340   -1.717224   -0.362157
