20

O      -0.109560    1.471205    0.004849
C       0.010166    0.058461   -0.074986
C      -1.388188   -0.543194    0.007455
C      -1.373535   -2.069384   -0.120392
C      -2.806960   -2.603094   -0.019418
C      -3.565743   -2.060986    1.170885
N      -4.425173   -2.765275    1.778357
O      -3.367942   -0.745748    1.488059
C      -2.062959   -0.170013    1.326348
H       0.772222    1.853780   -0.015531
H       0.481574   -0.251349   -1.020992
H       0.632621   -0.336020    0.745693
H      -1.982576   -0.120995   -0.813996
H      -0.922919   -2.380770   -1.069023
H      -0.756464   -2.498190    0.681029
H      -3.361503   -2.298641   -0.917588
H      -2.844277   -3.692393    0.026100
H      -4.857637   -2.211783    2.521980
H      -1.430410   -0.493348    2.167612
H      -2.205784    0.907757    1.405138
