18

C      -0.001041    1.496593    0.358701
N      -0.053114    0.156810   -0.171440
C      -1.126228   -0.846787   -0.210999
C      -1.846797   -1.595042   -1.402672
C      -0.564322   -1.452431   -2.229554
C      -0.082199   -1.816372   -0.774889
C      -1.201094   -2.917971   -0.778613
C       0.984257   -0.791766   -0.246342
O       2.161757   -0.697338   -0.061765
H       1.051632    1.764217    0.484081
H      -0.470337    2.216433   -0.320662
H      -0.497376    1.564131    1.336154
H      -1.536383   -1.050996    0.783516
H      -2.879842   -1.494633   -1.745793
H      -0.387147   -2.215896   -2.989509
H      -0.306810   -0.454898   -2.585341
H      -1.569420   -3.240810    0.197010
H      -1.085569   -3.756484   -1.468888
