15

C      -0.063651    1.517761    0.077588
C      -0.011214    0.018715    0.014415
C       0.101530   -0.638536   -1.206849
O       0.167240    0.056449   -2.373125
C       0.142710   -2.035708   -1.164894
O       0.252141   -2.688342   -2.345259
N       0.080167   -2.726200   -0.041874
C      -0.027107   -2.001165    1.078472
N      -0.075506   -0.679444    1.163740
H       0.836644    1.959363   -0.363331
H      -0.913375    1.903739   -0.495941
H      -0.152445    1.835383    1.116682
H       0.241055   -0.579420   -3.095564
H       0.266739   -3.633702   -2.141896
H      -0.079380   -2.558912    2.009248
