11

O       0.054652    1.338469    0.007779
C      -0.036727    0.009285    0.001009
C      -1.187368   -0.685870    0.003650
C      -1.152421   -2.142010   -0.004497
O      -2.129257   -2.853460   -0.002901
N       0.164273   -2.725448   -0.015066
C       1.172809   -1.970776   -0.016643
O       1.178310   -0.593612   -0.009104
H       0.987869    1.588754    0.003897
H      -2.136350   -0.169155    0.011796
H       2.196152   -2.334009   -0.024273
