14

N       0.012803    1.369770   -0.150862
C      -0.025056    0.002093   -0.054839
C      -1.227171   -0.705162    0.003669
C      -1.134303   -2.097174    0.051749
N      -2.242260   -2.899116    0.156449
N       0.052906   -2.734451    0.039170
C       1.121984   -1.947407   -0.015190
N       1.170018   -0.620434   -0.061374
H       0.913088    1.779695    0.043720
H      -0.785851    1.892071    0.169276
H      -2.185980   -0.198155    0.011411
H      -3.127258   -2.531065   -0.151108
H      -2.076549   -3.872629   -0.046881
H       2.084502   -2.456393   -0.022905
