18

C       0.015945    1.527256   -0.029931
C      -0.031557    0.016353   -0.062470
C      -1.422874   -0.672396    0.013286
C      -0.830712   -1.450251    1.212888
O      -1.165906   -2.385874    1.875986
N       0.384579   -0.693275    1.200645
C       1.579549   -1.270678    0.526164
C       1.206769   -2.144102   -0.634432
C       1.154519   -0.646218   -0.804673
H       1.030175    1.879347    0.183021
H      -0.292284    1.940922   -0.997028
H      -0.651650    1.920917    0.742254
H      -2.258021   -0.007055    0.245950
H      -1.705849   -1.323265   -0.816945
H       2.537167   -1.301267    1.029654
H       2.050454   -2.612312   -1.132167
H       0.315506   -2.763309   -0.609741
H       1.765116   -0.132306   -1.536836
