21

C      -0.204318    1.553029   -0.145243
C       0.006365    0.052764    0.009855
C       1.182750   -0.609389   -0.795874
C       2.131105   -0.156167    0.357369
C       0.868970   -0.480363    1.194471
C       0.683691   -0.158467    2.652601
O       1.645654   -0.826560    3.449396
O       0.750823   -1.917627    1.024651
C       0.975844   -2.074468   -0.397502
H       0.719704    2.130493   -0.058703
H      -0.639493    1.775533   -1.125624
H      -0.900827    1.927985    0.612465
H      -0.954120   -0.467226   -0.078357
H       1.373906   -0.387799   -1.845708
H       3.021599   -0.755219    0.558470
H       2.384523    0.902461    0.327941
H       0.815215    0.915129    2.821638
H      -0.344188   -0.423163    2.951021
H       1.636493   -1.744462    3.152295
H       0.099792   -2.538663   -0.865090
H       1.853556   -2.707614   -0.572995
