18

C      -0.413750    1.390163   -0.195388
N      -0.026952   -0.006758    0.022770
C       1.322101   -0.486106   -0.371632
C       2.362166    0.440102   -0.889798
O       2.631106    1.521546   -0.414912
C       0.873368   -0.378894    1.070693
C       1.470364    0.590731    2.082329
C       2.841782    0.230372    2.612295
O       0.836110    1.534784    2.487863
H       0.397840    2.114461   -0.088532
H      -0.834455    1.460740   -1.202845
H      -1.191289    1.633163    0.531066
H       1.314153   -1.462079   -0.852850
H       2.896016    0.067708   -1.790930
H       0.642091   -1.338534    1.541361
H       2.938220   -0.847634    2.778388
H       3.589445    0.519591    1.866097
H       3.034420    0.774471    3.538069
