16

O      -0.060855    1.198376    0.578098
C      -0.126265   -0.154749    0.178031
C      -1.554709   -0.605341   -0.070411
C      -1.957931   -2.038634    0.215350
N      -2.431894   -0.971066    1.044308
C      -2.097371   -0.807142    2.389857
O      -2.046603   -1.709423    3.184941
C      -2.283289    0.131384   -1.151585
O      -1.785375    1.023071   -1.796062
H      -0.336284    1.719936   -0.186130
H       0.461946   -0.340346   -0.732153
H       0.312249   -0.749009    0.986197
H      -2.696477   -2.530260   -0.412579
H      -1.185248   -2.686796    0.622421
H      -1.947798    0.256119    2.643098
H      -3.335328   -0.189035   -1.304974
