14

O      -1.035030    0.140013   -0.021124
C       0.192946   -0.500301   -0.192798
C       1.133419    0.369040   -1.030517
O       0.785512    1.448786   -1.435088
C       0.858997   -0.837190    1.110462
N       1.421022   -1.953951    1.449807
C       1.916295   -1.716036    2.726161
C       1.617189   -0.445806    3.084747
O       0.943307    0.136513    2.049916
H      -0.940285    1.005525   -0.451529
H       0.083089   -1.458802   -0.725116
H       2.136140   -0.052207   -1.235069
H       2.437421   -2.475986    3.285755
H       1.776744    0.161993    3.958415
