18

C       0.008328    1.500643   -0.033739
C       1.570975    1.457379   -0.122424
C       1.522844   -0.067918    0.017205
C      -0.012261   -0.025414    0.104337
C       0.673931   -0.674823   -1.066184
C       0.602807   -0.230440   -2.536004
O       0.527114   -1.483841   -3.258486
C       0.554363   -2.449292   -2.307356
N       0.632738   -2.125453   -1.084274
H      -0.335216    2.008146    0.869846
H      -0.532285    1.923600   -0.887418
H       2.034104    1.852544   -1.033070
H       2.041939    1.942332    0.734933
H       2.221265   -0.687454    0.565631
H      -0.677297   -0.607194    0.730154
H      -0.287324    0.357992   -2.779748
H       1.490746    0.308787   -2.880669
H       0.504560   -3.461519   -2.691156
