19

C      -0.257338    1.517676    0.037974
C       0.085715    0.028973   -0.035153
C       0.978289   -0.407407   -1.211805
C       2.006781   -1.348060   -0.611387
N       2.812324   -2.055452   -1.290662
N       1.897028   -1.251210    0.778908
C       2.774278   -1.932185    1.707255
C       0.847043   -0.445009    1.203504
O       0.594227   -0.195073    2.359015
H       0.650351    2.130311    0.022293
H      -0.881480    1.814773   -0.809629
H      -0.795569    1.735075    0.963640
H      -0.849107   -0.546305   -0.042160
H       0.440124   -0.900704   -2.022577
H       1.503525    0.449062   -1.648396
H       3.434865   -2.605035   -0.697152
H       2.690750   -3.019201    1.599527
H       3.816579   -1.640502    1.541192
H       2.469629   -1.642707    2.713583
