20

O      -0.057618    1.314597   -0.450793
C      -0.039470    0.054716    0.211273
C      -1.417604   -0.542343    0.137042
C      -1.856415   -1.275266   -1.113787
C      -1.604426   -2.029987    0.156838
C      -0.567546   -3.169191    0.362368
C      -1.651514   -3.924244    1.147149
N      -2.030965   -3.053606    2.287844
C      -2.628972   -2.820442    0.943901
H       0.795864    1.735185   -0.309731
H       0.685349   -0.629553   -0.259592
H       0.257628    0.167900    1.265832
H      -2.178661    0.043933    0.645484
H      -2.881136   -1.151716   -1.449986
H      -1.133494   -1.376034   -1.918158
H      -0.294790   -3.659762   -0.575563
H       0.333711   -2.930362    0.933397
H      -1.809784   -4.994595    1.188183
H      -2.725090   -3.569657    2.829953
H      -3.702522   -2.847952    0.797920
