25

C      -0.079793    1.572317   -0.002108
C       1.286145    0.929545   -0.001076
C       0.046131    0.065052    0.000265
C      -0.332947   -0.669873    1.281844
C       0.645273   -1.759114    1.773500
C       1.320333   -2.630151    0.695945
C       0.454446   -3.014374   -0.517446
C       0.429820   -1.938487   -1.615469
C      -0.342468   -0.651303   -1.288654
H      -0.414390    2.060819    0.907309
H      -0.413615    2.058204   -0.913258
H       1.876397    0.982815   -0.910504
H       1.875724    0.987098    0.908301
H      -0.462044    0.053744    2.095237
H      -1.324462   -1.115119    1.127627
H       1.437065   -1.289572    2.369775
H       0.095975   -2.404774    2.470240
H       2.212746   -2.113933    0.320653
H       1.689272   -3.540226    1.183469
H       0.859632   -3.933405   -0.957332
H      -0.568337   -3.259949   -0.199891
H       1.468795   -1.681343   -1.863302
H      -0.001681   -2.366152   -2.529282
H      -1.416218   -0.882842   -1.236009
H      -0.224710    0.039959   -2.132458
