15

C      -0.166832    1.367929   -0.175113
O      -0.163232   -0.054542   -0.165233
C       0.711302   -0.623076   -1.076201
C       0.611136   -2.146917   -0.975639
O      -0.242923   -2.499737   -2.063967
C      -0.357346   -1.440266   -2.913550
N      -0.972879   -1.403730   -4.006846
O       0.323290   -0.368906   -2.426121
H       0.838263    1.765225    0.027951
H      -0.517958    1.757821   -1.136073
H      -0.844988    1.684666    0.618649
H       1.724896   -0.217513   -0.962262
H       1.583672   -2.634743   -1.096009
H       0.147681   -2.450997   -0.036370
H      -1.379433   -2.313778   -4.210037
