23

C       0.025670    1.581314    0.048192
C      -0.047639    0.041897   -0.003872
C      -1.508450   -0.448925    0.047120
C       0.648986   -0.478782   -1.181375
C       1.214830   -0.893860   -2.163135
C       1.880798   -1.378652   -3.338147
C       3.264111   -2.010857   -3.239162
C       2.083044   -2.872819   -3.579326
C       1.560697   -3.899694   -2.602827
H       1.063019    1.925839    0.041572
H      -0.482008    2.019663   -0.816747
H      -0.459058    1.955053    0.956072
H       0.465021   -0.345178    0.888428
H      -2.067940   -0.080524   -0.818454
H      -1.556554   -1.541022    0.039897
H      -2.001721   -0.085806    0.954821
H       1.703566   -0.786536   -4.231937
H       3.984144   -1.767816   -4.012812
H       3.683852   -2.102865   -2.243392
H       2.001424   -3.161690   -4.624000
H       1.618461   -3.529824   -1.575489
H       0.512548   -4.143184   -2.807609
H       2.140182   -4.827330   -2.665160
