20

C      -0.254649    1.515111    0.039288
C       0.059219    0.021660    0.032854
C       0.776361   -0.411426   -1.268266
N       1.174124   -1.826396   -1.315325
C       2.529396   -2.157902   -0.879785
C       1.361357   -2.567992   -0.058946
C       1.109297   -1.918951    1.297582
C       0.912529   -0.412223    1.214836
O       1.386429    0.356735    2.018476
H       0.666264    2.104725    0.030732
H      -0.851763    1.789068   -0.835953
H      -0.810270    1.794647    0.937795
H      -0.872475   -0.560624    0.088552
H       0.102480   -0.221626   -2.111498
H       1.655092    0.229593   -1.417868
H       3.065188   -2.877640   -1.493588
H       3.148612   -1.350332   -0.487683
H       1.033880   -3.603752   -0.124395
H       0.176494   -2.324618    1.713820
H       1.905629   -2.143375    2.012873
