16

O       0.176967    1.294172   -0.202636
C       0.010545   -0.066019    0.177946
C      -1.411087   -0.508705    0.156236
C      -2.690773   -0.073192    0.917148
C      -3.263896   -1.442513    0.818247
N      -3.571811   -0.427779   -0.251513
C      -2.329214   -0.877535   -1.013049
C      -1.996694   -1.914819    0.032182
O      -1.285861   -3.079238   -0.012458
H      -0.252392    1.406294   -1.057531
H       0.604362   -0.744839   -0.454865
H       0.418477   -0.135951    1.192571
H      -2.909259    0.753828    1.582886
H      -4.041519   -1.946222    1.381102
H      -2.203882   -0.830032   -2.088498
H      -1.758131   -3.710807   -0.568384
