13

O       0.202468    1.462347    0.113035
C       0.062123    0.085309    0.036375
C      -0.118458   -0.679161    1.366622
C      -1.542551   -0.094823    1.527422
C      -1.366931   -0.592738    0.069684
O      -0.689855   -1.799532    0.574725
C      -2.339247   -0.714877   -0.985083
N      -3.107883   -0.757390   -1.847656
H       0.270269    1.820425   -0.777952
H       0.736371   -0.405920   -0.671722
H       0.621358   -0.928667    2.123864
H      -2.225394   -0.693724    2.129222
H      -1.637604    0.979731    1.679086
