23

C       0.294207    1.623381    0.388030
O       0.532435    0.303671   -0.040575
C       0.631959   -0.632051    1.011008
C      -0.714138   -0.962299    1.717885
C      -0.627265   -2.466595    2.085512
C       0.791575   -2.913134    1.659196
O       0.888087   -4.272351    1.270865
C       1.152582   -1.983811    0.487064
C       0.505527   -2.407357   -0.836890
H       1.075195    1.971671    1.083277
H       0.304948    2.260166   -0.500170
H      -0.680752    1.733033    0.885718
H       1.343968   -0.246244    1.761371
H      -0.883689   -0.327578    2.591439
H      -1.533372   -0.773587    1.017725
H      -0.814490   -2.656418    3.146894
H      -1.356358   -3.053607    1.519017
H       1.493850   -2.711779    2.485329
H       0.656332   -4.816211    2.029772
H       2.237978   -1.945662    0.348516
H      -0.586175   -2.448277   -0.767533
H       0.759295   -1.693079   -1.622640
H       0.857739   -3.400021   -1.124535
