11

N       0.061762    1.349652    0.144745
C       0.035982   -0.013371    0.039518
N      -1.084330   -0.701451    0.018610
O      -0.690236   -2.054023   -0.015687
C       0.630795   -2.129589   -0.026885
C       1.185577   -0.883256    0.005124
C       2.543154   -0.499836    0.001113
N       3.642748   -0.135001   -0.009371
H       0.881301    1.808719   -0.221878
H      -0.807202    1.815705   -0.069321
H       1.065275   -3.117050   -0.057841
