15

O       0.011558   -0.023053   -0.364727
C      -0.005020    1.159744   -0.105571
N      -1.062086    2.046121    0.014720
N      -0.652671    3.303942    0.320401
N       0.617069    3.284826    0.406089
N       1.050901    2.023649    0.159306
C       2.434539    1.651117    0.175500
C       3.483556    2.607676   -0.316226
C       3.379109    2.283816    1.157718
H      -2.040294    1.842077   -0.099701
H       2.518333    0.595340   -0.050602
H       4.308212    2.200842   -0.890042
H       3.142533    3.587467   -0.629672
H       2.970421    3.053207    1.802340
H       4.130650    1.650338    1.614597
