23

C      -1.736630    1.690877   -1.235121
C      -1.809620    0.168088   -1.359135
O      -0.955809   -0.305681   -2.399400
C      -1.512867   -0.532400   -0.024587
C      -1.564412   -2.070071   -0.062346
C      -0.919689   -2.670147    1.192363
C      -3.019840   -2.575620   -0.233255
C      -3.122315   -4.019843   -0.405907
C      -3.190447   -5.211000   -0.555260
H      -1.928725    2.159656   -2.203888
H      -2.469434    2.066822   -0.513699
H      -0.742385    2.005674   -0.893093
H      -2.816020   -0.102056   -1.700962
H      -0.054044   -0.048203   -2.175704
H      -0.508080   -0.223990    0.300490
H      -2.204293   -0.155143    0.741920
H      -0.998704   -2.398181   -0.941357
H      -1.435295   -2.333213    2.100332
H      -0.960229   -3.762405    1.170368
H       0.129627   -2.368927    1.275915
H      -3.609447   -2.270909    0.643278
H      -3.483647   -2.087625   -1.098350
H      -3.261084   -6.261759   -0.689053
