18

C      -0.118887    1.495763   -0.089634
C      -0.040717    0.007985    0.045334
N      -0.060110   -0.760908   -1.047339
N       0.040297   -2.051126   -0.583338
C       0.092488   -2.075260    0.760798
C       0.044083   -0.783068    1.214479
C       0.203758   -0.798992    2.710729
C       0.006187   -2.323237    3.017467
N       0.290724   -3.050326    1.738447
H       0.769716    1.982914    0.328078
H      -0.198602    1.769195   -1.143837
H      -0.987820    1.901713    0.440787
H       0.036664   -2.807154   -1.244278
H       1.202181   -0.467579    3.025269
H      -0.521190   -0.194051    3.264655
H       0.670051   -2.684194    3.806821
H      -1.029599   -2.504319    3.333058
H      -0.258345   -3.895192    1.634785
