25

C      -0.189921    1.656862    0.329305
C       0.145683    0.208370   -0.048933
C       0.780692   -0.541754    1.108239
C       0.044288   -1.280390    2.191424
C      -1.129084   -2.098461    1.629195
C      -0.114898   -2.932654    0.769913
C      -0.340671   -3.179460   -0.720843
C      -1.529652   -4.108214   -0.991166
C       1.022444   -2.023226    1.262886
H       0.709380    2.205623    0.630986
H      -0.641632    2.194108   -0.510517
H      -0.892700    1.689662    1.168561
H      -0.766859   -0.291759   -0.384360
H       0.830441    0.201925   -0.906978
H       1.624412    0.011080    1.524411
H       0.167524   -1.033843    3.239576
H      -1.640154   -2.700223    2.383383
H      -1.888127   -1.531012    1.079641
H       0.004062   -3.908820    1.256074
H      -0.488234   -2.232761   -1.250419
H       0.572491   -3.621215   -1.142286
H      -1.665813   -4.282526   -2.063045
H      -1.387670   -5.082806   -0.510289
H      -2.461824   -3.683006   -0.602947
H       2.018730   -2.386542    1.493200
