20

C      -0.031832    1.517374    0.156688
C      -0.000235    0.033271   -0.003735
C       0.010959   -0.687728   -1.136782
C       0.009933   -0.216290   -2.555065
N       0.028165   -2.080337   -0.844415
C       0.221925   -2.275802    0.603502
C      -0.039148   -0.879836    1.204760
C      -0.097101   -3.127851   -1.705233
O      -0.248816   -3.070936   -2.909504
H       0.828162    1.873471    0.739551
H      -0.025056    2.043497   -0.800381
H      -0.929139    1.835996    0.704791
H       0.875426   -0.602717   -3.100570
H      -0.871516   -0.573901   -3.092072
H       0.030974    0.874705   -2.587734
H      -0.454773   -3.045273    0.982146
H       1.250469   -2.600795    0.800446
H       0.713633   -0.618054    1.956457
H      -1.014330   -0.822704    1.709145
H      -0.045585   -4.091370   -1.158265
