13

O      -0.028283    1.374779    0.012762
C      -0.014253   -0.007761    0.025901
C       1.054045   -0.580695   -0.749078
C       1.936321   -1.083842   -1.390301
C      -0.471507   -0.781263    1.218528
O      -1.477338    0.011958    1.896789
C      -2.354564   -0.159797    0.804068
O      -3.485157    0.182830    0.742054
C      -1.332047   -0.874082   -0.024710
H      -0.441812    1.666485    0.837154
H       2.723457   -1.514067   -1.959655
H       0.061364   -1.522689    1.797228
H      -1.487004   -1.650682   -0.757685
