16

O      -0.024582   -0.094570    0.102049
C      -0.003413    1.121777    0.049698
C      -1.310577    1.928419   -0.019604
C      -1.162067    3.320964    0.620328
N      -0.000973    3.992497    0.025746
C       1.151919    3.274772   -0.094040
C       1.210560    1.920337   -0.039351
C      -2.358789    4.142801    0.476501
C      -3.346718    4.816988    0.365685
H      -1.580838    2.044920   -1.076477
H      -2.107523    1.367114    0.470390
H      -0.968298    3.169276    1.697156
H       0.075360    4.981396    0.202521
H       2.044470    3.872030   -0.257122
H       2.158457    1.407328   -0.135105
H      -4.224359    5.407617    0.267591
