21

C      -0.639029    1.383935    0.081868
C      -0.009000    0.000738    0.002502
C       1.314222   -0.164204   -0.819280
C       1.992688   -0.795338    0.413725
O       2.695260    0.180564    1.219694
C       1.570675    0.296213    2.101630
C       1.770571    0.276056    3.584535
C       1.304722    1.542582    2.878776
C       0.696257   -0.616450    1.256873
H       0.085885    2.137573    0.402133
H      -1.021654    1.685367   -0.899688
H      -1.479742    1.403475    0.784727
H      -0.757996   -0.713219   -0.355584
H       1.225525   -0.827289   -1.684062
H       1.794645    0.766440   -1.131622
H       2.556945   -1.724570    0.304870
H       1.058831   -0.266450    4.198919
H       2.795485    0.250062    3.938596
H       2.024754    2.347464    2.773816
H       0.279515    1.867804    3.017892
H       0.176372   -1.419911    1.778855
