16

C       0.277170    0.972837    0.759202
C      -0.261831    0.392956   -0.561518
C      -1.529924   -0.308945   -0.398303
C      -2.573294   -0.883120   -0.233624
C      -3.851867   -1.583766   -0.057647
C      -3.681096   -2.974971    0.386061
C      -3.547925   -4.116290    0.728440
C      -4.735955   -0.844703    0.872761
N      -5.435886   -0.261879    1.581683
H       1.225942    1.488117    0.585016
H      -0.430770    1.686802    1.187774
H       0.443728    0.179663    1.492578
H      -0.389042    1.198133   -1.295841
H       0.474942   -0.296696   -0.992120
H      -4.376905   -1.600266   -1.025578
H      -3.426043   -5.124841    1.039372
