16

C       0.011292    1.544683    0.209888
C      -0.018134    0.032299   -0.085138
C      -1.400815   -0.529311   -0.124368
C      -2.083420   -1.037920   -1.181206
C      -3.404442   -1.446795   -0.723586
O      -4.340467   -1.939968   -1.304561
C      -3.417004   -1.106569    0.816644
O      -4.289348   -1.280590    1.622716
N      -2.163866   -0.550976    1.046334
H       1.043669    1.903043    0.231237
H      -0.530312    2.100942   -0.559995
H      -0.444776    1.779006    1.176301
H       0.464722   -0.171552   -1.044373
H       0.557876   -0.500340    0.683684
H      -1.711417   -1.124141   -2.190047
H      -1.840203   -0.259658    1.954160
