16

C       0.111170    1.434492    0.069061
C      -0.233125   -0.016815   -0.069517
N      -1.325429   -0.499545    0.326687
C      -1.620012   -1.912345    0.093704
C      -0.624799   -2.839184    0.739760
C       0.696972   -2.767798    0.562917
C       1.393532   -1.863093   -0.369415
O       2.471408   -2.108540   -0.835265
O       0.784181   -0.681809   -0.753539
H       1.012260    1.553217    0.679716
H       0.334185    1.858037   -0.915253
H      -0.719793    1.970482    0.525524
H      -2.619640   -2.111703    0.485693
H      -1.657345   -2.110737   -0.988505
H      -1.018835   -3.616485    1.389727
H       1.363130   -3.484539    1.030276
