23

C       0.060919    1.635776   -0.081296
C       0.057299    0.109324   -0.041460
C       1.167841   -0.614275   -0.900618
C       1.687645   -1.304326    0.365632
C       2.136887   -0.278007    1.364592
C       0.666038   -0.551964    1.219771
C      -1.299962   -0.518353   -0.324816
C      -2.613733    0.071276    0.125331
C      -2.276488    0.007045   -1.346395
H       1.059592    2.028323    0.127741
H      -0.233167    2.015228   -1.065775
H      -0.617744    2.062531    0.664397
H       0.737096   -1.296067   -1.637228
H       1.886381    0.038148   -1.409515
H       1.997996   -2.340085    0.432203
H       2.585121   -0.672857    2.271226
H       2.575284    0.659905    1.032189
H       0.073678   -0.915117    2.052593
H      -1.256741   -1.603950   -0.263720
H      -3.370426   -0.601636    0.514087
H      -2.614128    1.048971    0.593686
H      -2.053108    0.941710   -1.848270
H      -2.801816   -0.709749   -1.968216
