16

O       0.275552    0.481520    0.841179
C      -0.133679    0.155349   -0.479999
C      -1.472878   -0.524237   -0.370971
C      -2.010727   -1.587952   -1.291850
N      -0.971677   -2.514609   -1.752110
C      -0.591292   -2.857317   -0.435733
O       0.272773   -3.569195   -0.013884
C      -1.687033   -1.955266    0.146708
O      -2.547947   -2.251210    1.170793
H       1.142935    0.894898    0.795356
H      -0.231690    1.059315   -1.102447
H       0.594753   -0.504740   -0.972448
H      -2.257160    0.121343    0.023103
H      -2.976329   -1.555802   -1.778371
H      -0.292995   -2.286383   -2.469889
H      -2.166397   -1.914764    1.989622
