12

N      -0.006424    1.297466   -0.122997
C      -0.052128   -0.043944   -0.045839
N      -1.171213   -0.708668   -0.028798
C      -1.067451   -2.056989    0.051295
F      -2.222882   -2.712227    0.067070
C       0.091553   -2.733360    0.112761
O       1.275212   -2.036112    0.095178
C       1.293752   -0.687433    0.017444
O       2.330897   -0.070128    0.001702
H       0.896833    1.741082   -0.130396
H      -0.855804    1.832493   -0.169444
H       0.218834   -3.801855    0.177091
