14

C      -0.218605   -1.277509   -0.183913
C      -0.086526   -0.086913   -0.096608
C       0.064565    1.348880    0.018600
C      -0.238192    1.989348    1.458731
N       1.164885    2.431840    1.422309
N       2.187179    3.138676    1.950788
C       3.090743    2.965431    0.976815
N       2.705866    2.225034   -0.118569
C       1.472745    1.924355    0.237265
H      -0.325876   -2.331011   -0.267932
H      -0.485913    1.864977   -0.774028
H      -0.964291    2.804725    1.456978
H      -0.458850    1.265215    2.243886
H       4.078652    3.393866    1.060305
