15

N      -0.015801    1.490810   -0.258369
C      -0.006280    0.044664   -0.057013
C       0.615690   -0.511597    1.208246
C      -0.270092   -1.260379    1.864674
N      -1.508943   -1.305887    1.183774
C      -2.632866   -1.992064    1.618491
O      -2.658145   -2.648944    2.630686
C      -1.451000   -0.513317    0.012484
O      -2.363961   -0.336333   -0.745872
H      -0.300461    1.960087    0.596708
H       0.922217    1.814800   -0.470600
H       0.454232   -0.402310   -0.948691
H       1.632663   -0.321068    1.519304
H      -0.190458   -1.810341    2.790125
H      -3.478238   -1.859346    0.926574
