23

C       0.486452    1.531861    0.089535
C       0.302428    0.025587   -0.000825
O       0.777162   -0.553478    1.196809
C       0.550185   -1.957121    1.308809
C       1.497462   -2.763945    0.440842
C       2.494238   -3.280094    1.158389
C       2.365772   -2.960333    2.626369
C       0.914575   -2.427136    2.742893
C       0.690030   -1.390415    3.840821
H       1.543098    1.780599    0.223567
H       0.128783    2.016940   -0.823848
H      -0.070074    1.935885    0.940059
H      -0.762851   -0.225126   -0.145881
H       0.847011   -0.371409   -0.872420
H      -0.509800   -2.152906    1.078686
H       1.388929   -2.847809   -0.634495
H       3.323766   -3.851551    0.754379
H       2.539402   -3.830195    3.270340
H       3.103655   -2.202086    2.924864
H       0.273882   -3.295400    2.940268
H       1.292388   -0.496690    3.662896
H      -0.358649   -1.079508    3.886769
H       0.960428   -1.803042    4.818716
