20

C      -0.103578    1.531918    0.002988
C      -0.024258    0.022722    0.039542
O      -1.186955   -0.634605   -0.396385
C       1.299155   -0.675743   -0.208697
C       0.671268   -0.679617    1.162260
C       1.285775   -0.166475    2.469438
N       0.891140   -1.429360    3.196181
C      -0.579477   -1.502599    3.102716
C       0.205475   -1.898413    1.917596
H       0.800009    1.989525    0.416321
H      -0.214776    1.891893   -1.027488
H      -0.965186    1.885878    0.578353
H      -1.272132   -0.487661   -1.345256
H       1.267492   -1.605710   -0.768075
H       2.188599   -0.073116   -0.370368
H       2.374731   -0.077937    2.440416
H       0.859949    0.742556    2.909842
H      -0.999254   -2.293109    3.717470
H      -1.159271   -0.581830    3.083407
H       0.279501   -2.923920    1.570890
