23

C       0.028784    1.385804    0.055563
O      -0.039069   -0.029166    0.043992
C      -1.344589   -0.589422   -0.016368
C      -2.105880   -0.165069   -1.267971
C      -1.138955   -2.116992    0.144503
C      -1.771186   -2.460397    1.512533
C      -1.024795   -3.520520    2.319221
C      -1.830423   -1.076604    2.174869
O      -2.114259   -0.180167    1.106480
H       1.050617    1.646317    0.342802
H      -0.173842    1.819836   -0.933332
H      -0.669595    1.814214    0.783155
H      -1.509527   -0.372085   -2.160754
H      -3.046782   -0.717025   -1.332374
H      -2.344555    0.900727   -1.239163
H      -1.596574   -2.674351   -0.675973
H      -0.066072   -2.322541    0.137005
H      -2.803139   -2.794362    1.350470
H       0.011790   -3.215431    2.501577
H      -1.501187   -3.691675    3.290799
H      -1.001806   -4.478621    1.790235
H      -2.623115   -0.971715    2.920293
H      -0.867478   -0.829484    2.647661
