24

C      -0.109914    1.548858   -0.129910
C       0.003172    0.029431    0.063342
C       0.732253   -0.286467    1.378504
C      -1.391667   -0.628732   -0.022563
O      -2.067434   -0.248442   -1.222113
C      -1.366038   -2.155932    0.113766
N      -2.712080   -2.696034    0.229404
C      -3.395424   -3.060102   -1.002421
C      -2.881140   -4.111530   -0.082352
H       0.881798    2.008928   -0.185280
H      -0.661607    1.792014   -1.039763
H      -0.642203    2.005316    0.713299
H       0.605189   -0.376960   -0.766075
H       0.991105   -1.343923    1.476630
H       1.663832    0.284756    1.442875
H       0.116431   -0.008645    2.242201
H      -2.022725   -0.231827    0.782344
H      -1.526277   -0.542449   -1.964058
H      -0.811763   -2.584615   -0.746917
H      -0.821323   -2.441326    1.019120
H      -4.454514   -2.824054   -1.044607
H      -2.864746   -2.920291   -1.942052
H      -2.005169   -4.671328   -0.408801
H      -3.554117   -4.662424    0.568706
