13

C      -0.076993    1.436146   -0.027449
N      -0.109568   -0.015492   -0.108593
C       0.524323   -0.623949   -0.993915
C       0.586452   -2.117520   -1.203086
O       1.441257   -2.265977   -2.339628
C       1.852105   -1.056188   -2.776519
O       2.567268   -0.859195   -3.699976
O       1.316173   -0.062720   -1.987081
H       0.537925    1.916164   -0.795661
H      -1.102125    1.813228   -0.101922
H       0.296720    1.722401    0.961007
H       1.021536   -2.636609   -0.344946
H      -0.395622   -2.544604   -1.422821
