14

N       0.013776    1.389230    0.120168
C      -0.007101    0.031979    0.042022
C      -1.135696   -0.742916    0.015996
O      -2.355988   -0.147964    0.022154
N      -1.134025   -2.104148   -0.014065
N      -0.041165   -2.759728   -0.027994
N       1.106628   -2.040263   -0.016981
C       1.267061   -0.658305    0.006024
N       2.372265    0.000449   -0.008449
H       0.910509    1.808907   -0.079615
H      -0.820045    1.894539   -0.127547
H      -3.008958   -0.860282   -0.001627
H       1.928120   -2.627101   -0.039544
H       3.191731   -0.603689   -0.045048
