19

C      -0.254496    1.593140    0.023438
C       0.046386    0.102739    0.014920
C       1.056244   -0.520108   -0.976779
C       2.435090    0.164823   -1.063551
C       2.792423   -0.549443    0.252602
C       2.197088    0.102135    1.514009
C       0.860476   -0.571688    1.143460
N       1.568624   -1.471392    0.117173
H       0.652639    2.197327    0.121584
H      -0.754589    1.896710   -0.902960
H      -0.916480    1.853941    0.856639
H      -0.892519   -0.454172   -0.085317
H       0.653386   -0.951503   -1.896221
H       3.016026   -0.225769   -1.903163
H       2.481005    1.257806   -1.088504
H       3.781129   -1.006393    0.332782
H       2.616298   -0.331053    2.425934
H       2.232782    1.192429    1.599594
H       0.298090   -1.045111    1.951769
