17

C       0.835046    1.527320   -0.111016
C      -0.045147    0.284033   -0.067084
C       0.189100   -0.746082   -1.203244
C       0.922045   -1.638100   -0.133198
N       0.345008   -0.760735    0.921445
C       0.529812   -3.041304   -0.053946
C       0.188974   -4.191738   -0.009197
C       2.390131   -1.538108   -0.244797
N       3.538645   -1.417355   -0.305780
H       1.886635    1.272041   -0.275764
H       0.513908    2.195419   -0.917527
H       0.760734    2.084394    0.829487
H      -1.091961    0.578528    0.062480
H      -0.717746   -1.231151   -1.562037
H       0.802741   -0.425954   -2.044637
H       0.997245   -0.477731    1.646137
H      -0.109055   -5.210301    0.040235
