23

C       0.146266    1.615065    0.201312
C       0.027742    0.095595    0.051648
O       0.650214   -0.434370    1.236117
C      -1.448357   -0.356106   -0.006171
C      -2.291021    0.034139    1.202279
O      -3.542241   -0.632747    1.076244
C       0.743648   -0.455707   -1.181259
C       1.016516    0.341956   -2.433103
C       2.156558   -0.077529   -1.540638
H       1.186891    1.940707    0.126950
H      -0.442436    2.137562   -0.556873
H      -0.216013    1.915035    1.187115
H       0.773477   -1.380333    1.102692
H      -1.914408    0.029154   -0.920518
H      -1.475177   -1.451143   -0.082491
H      -1.763913   -0.264168    2.119186
H      -2.433371    1.124900    1.239188
H      -4.076476   -0.407499    1.843279
H       0.493128   -1.500722   -1.359474
H       0.893220   -0.152589   -3.390305
H       0.748392    1.392193   -2.442150
H       2.647937    0.687143   -0.950169
H       2.821559   -0.863002   -1.882582
