23

C       0.395168    1.609885   -0.109939
C       0.061807    0.127986   -0.003359
C       0.803975   -0.837122   -0.973032
C       1.253093   -1.719105    0.224374
C       0.608383   -0.688554    1.215753
C       1.813662   -0.123302    1.971877
O       2.956771   -0.399572    1.165339
C       2.752570   -1.678314    0.548511
C       3.216874   -2.822461    1.452113
H       1.476849    1.775455   -0.074674
H       0.028533    2.017948   -1.058529
H      -0.064730    2.189238    0.698936
H      -1.022436   -0.003842   -0.077434
H       0.174974   -1.335474   -1.714692
H       1.643625   -0.366648   -1.494622
H       0.847610   -2.732246    0.233567
H      -0.160715   -1.057270    1.897353
H       1.779260    0.958258    2.130036
H       1.903556   -0.603745    2.958555
H       3.360381   -1.668809   -0.363721
H       2.599204   -2.902692    2.352707
H       3.157355   -3.778018    0.920458
H       4.253472   -2.662631    1.761718
