17

C      -0.101644   -1.227391   -0.135764
C      -0.044207   -0.032227   -0.023790
C       0.015989    1.422703    0.061357
O      -0.546414    1.912476    1.291180
C       0.491650    2.743122    1.903174
C       1.121566    3.408489    0.671631
C       1.470385    2.028054    0.057481
C       2.193269    1.377292    1.223727
C       1.608783    1.812654    2.345558
H      -0.154695   -2.284470   -0.222249
H      -0.553875    1.851276   -0.774594
H       0.009307    3.364593    2.655088
H       0.403211    3.992286    0.089020
H       2.007997    4.002762    0.896632
H       1.954118    1.997771   -0.917322
H       2.954042    0.614643    1.124775
H       1.784450    1.482602    3.360740
