15

O      -0.048581   -0.037571   -0.040645
C      -0.029079    1.169076   -0.005507
N      -1.104262    2.004447    0.140061
C      -0.834639    3.430974    0.070737
C       0.683205    3.485239   -0.030321
N       1.343364    2.890173    1.132760
C       1.191204    2.082962   -0.124612
C       2.335958    1.682656   -0.874339
C       3.307342    1.341777   -1.495066
H      -2.012755    1.623408    0.348336
H      -1.300599    3.888354   -0.811571
H      -1.189517    3.956149    0.965320
H       1.157530    4.294570   -0.572159
H       2.309077    3.213301    1.170655
H       4.160069    1.029748   -2.045879
