19

C      -0.035842    1.360071    0.228936
C      -0.001820   -0.086231    0.067331
C       0.033450   -1.283806   -0.056137
C       0.065115   -2.747341   -0.219451
C       0.748591   -3.126731   -1.542044
O       0.806495   -3.357740    0.857656
C      -0.066375   -4.079847    1.719897
C      -1.395575   -4.083952    1.019399
C      -1.328060   -3.334758   -0.072021
H       0.654264    1.683684    1.016001
H       0.253548    1.872309   -0.695328
H      -1.037646    1.708834    0.503262
H       1.780630   -2.767582   -1.539961
H       0.748827   -4.214046   -1.655124
H       0.225134   -2.675407   -2.389767
H       0.339497   -5.089724    1.877045
H      -0.126120   -3.595544    2.708568
H      -2.262264   -4.615513    1.391706
H      -2.119176   -3.114382   -0.776199
