17

C       0.066741    1.368853   -0.105718
N       0.032612   -0.078932   -0.136825
C      -1.099049   -0.657361   -0.002521
N      -2.342211   -0.036277    0.101303
C      -1.179095   -2.122306   -0.019264
C      -2.224224   -2.986640   -0.200760
C      -1.677993   -4.304311   -0.125399
C      -0.346042   -4.138558    0.095318
O      -0.029189   -2.824610    0.162459
H       1.106241    1.706443   -0.107126
H      -0.426512    1.815512   -0.983118
H      -0.414230    1.796714    0.791856
H      -2.318976    0.949394    0.312210
H      -3.038671   -0.535196    0.634038
H      -3.249281   -2.718414   -0.402993
H      -2.203155   -5.240694   -0.227961
H       0.476070   -4.823000    0.225896
