17

C      -0.004157    1.424334   -0.017456
N      -0.003793   -0.021999    0.036912
N       0.000756   -0.744745   -1.114601
C       0.000595   -2.025661   -0.735403
C      -0.003960   -2.131468    0.667780
C      -0.006558   -0.836903    1.112443
C      -0.011582   -0.768446    2.603054
O      -0.011891   -2.148237    2.988433
C      -0.007197   -3.042933    1.851912
H       0.886959    1.834943    0.468176
H      -0.004725    1.708063   -1.069233
H      -0.895108    1.834220    0.469023
H       0.003681   -2.797241   -1.490824
H       0.874139   -0.267728    3.023001
H      -0.900800   -0.269012    3.017092
H      -0.893766   -3.689633    1.910011
H       0.880117   -3.688044    1.916048
