20

O      -0.251751    0.589087   -0.139846
C       0.057741    1.693176    0.243795
N       1.339994    2.094697    0.539220
C       2.548942    1.706166   -0.136595
C       2.173755    3.160634    0.012478
C       1.793464    3.999508   -1.182402
C       1.059578    3.397481   -2.415192
C       0.263415    4.726731   -2.534050
C       0.653523    5.056271   -1.067900
H      -0.683737    2.479994    0.480476
H       3.333930    1.280357    0.482639
H       2.435114    1.253482   -1.118785
H       2.689266    3.721014    0.793190
H       2.710094    4.499660   -1.518504
H       1.678678    3.095155   -3.262835
H       0.408468    2.560410   -2.150294
H       0.729106    5.416819   -3.243013
H      -0.800448    4.654911   -2.767941
H      -0.119901    4.737734   -0.362597
H       0.937671    6.083878   -0.829154
