18

C      -0.139136    1.574178    0.001944
C      -0.011000    0.057196   -0.007820
O      -1.311124   -0.406122   -0.227788
C       1.176609   -0.572009   -0.870985
C       2.108853   -0.202266    0.330318
C       0.847562   -0.612845    1.160687
C       0.742589   -2.084922    0.750850
C       0.957018   -2.058318   -0.573172
H       0.804137    2.093557    0.166890
H      -0.556946    1.905545   -0.953654
H      -0.841755    1.870059    0.786990
H      -1.262115   -1.371526   -0.239544
H       1.379930   -0.263892   -1.896635
H       2.989000   -0.833911    0.460176
H       2.383851    0.851071    0.396000
H       0.714941   -0.346427    2.209335
H       0.530196   -2.922040    1.401020
H       0.965940   -2.867981   -1.289387
