19

O       0.099326    1.489192   -0.113099
C       0.062036    0.085141    0.006760
C       0.223008   -0.519144    1.482522
C      -1.310968   -0.687936    1.468979
C      -2.637458   -1.519049    1.423787
C      -2.826002   -0.291473    0.415947
C      -2.196410    0.594883    1.511091
O      -2.882661    0.792303    2.727695
C      -1.359084   -0.604555   -0.055360
H       0.998100    1.778927    0.076262
H       0.747422   -0.375623   -0.717781
H       0.782307   -1.458833    1.459943
H       0.648393    0.140958    2.245071
H      -2.563003   -2.507151    0.962724
H      -3.284840   -1.518354    2.300214
H      -3.715718   -0.089030   -0.188508
H      -1.724788    1.514602    1.164142
H      -3.431482    1.575918    2.631204
H      -1.265866   -1.561270   -0.575448
