14

C      -0.064476    1.296599    0.099664
O       0.021983   -0.129488   -0.025095
C       0.647329   -0.564306   -1.131571
O       1.118126    0.148748   -1.985792
C       0.701245   -2.027173   -1.197887
C       1.233681   -2.863936   -2.130346
N       1.030097   -4.173581   -1.740632
C       0.396698   -4.067537   -0.613198
O       0.156243   -2.806830   -0.210023
H       0.933493    1.740790    0.130690
H      -0.613702    1.723512   -0.743090
H      -0.594227    1.477928    1.034355
H       1.742775   -2.602481   -3.043562
H       0.044659   -4.858533    0.030732
