19

O      -0.438169    0.603398    0.847688
C       0.069168    1.006932   -0.166562
C       1.375388    1.762506   -0.246151
C       1.209446    3.115631   -0.964192
C       2.527013    3.836920   -1.142025
C       3.435052    3.515618   -2.293731
C       2.720854    4.861056   -2.256157
C       1.670972    5.148303   -3.189193
C       0.790554    5.401336   -3.969628
H      -0.422263    0.843801   -1.155626
H       1.770710    1.885188    0.766559
H       2.083462    1.143476   -0.816037
H       0.744017    2.961829   -1.944424
H       0.519021    3.748684   -0.393394
H       3.022270    4.100139   -0.210696
H       4.508037    3.513700   -2.139162
H       3.082594    2.803887   -3.032536
H       3.339107    5.716455   -1.999737
H       0.016983    5.626633   -4.661022
