19

C       0.196165    1.380287    0.087297
O      -0.023006   -0.009399   -0.107506
C       0.649505   -0.529984   -1.237540
C       1.994430   -1.215431   -0.823776
O       2.612265   -0.747928    0.340695
C       1.250195   -2.579108   -0.789711
C       0.089979   -1.938400   -1.613050
C      -1.318643   -2.252157   -1.178692
O      -2.214839   -2.537443   -1.931716
H       1.259595    1.607045    0.231957
H      -0.178139    1.960353   -0.768106
H      -0.361025    1.667324    0.982050
H       0.675289    0.211645   -2.045085
H       2.739276   -1.172818   -1.622911
H       1.908895   -0.650386    0.995265
H       1.748782   -3.450403   -1.217439
H       0.927596   -2.820570    0.228909
H       0.174499   -2.117316   -2.686501
H      -1.479652   -2.212953   -0.079890
