23

C      -0.810553    1.059862   -0.140912
C       0.262243   -0.000078    0.054333
C       1.556524    0.080927   -0.806056
C       2.396456   -0.280700    0.455968
C       1.152699    0.065437    1.328996
C       2.823617   -1.737276    0.526043
C       4.073883   -2.131161   -0.296103
O       4.820970   -2.441158    0.897567
C       3.689646   -2.146076    1.741409
H      -0.387231    2.067271   -0.053424
H      -1.275661    0.979384   -1.129996
H      -1.604697    0.966656    0.608579
H      -0.187419   -0.994833   -0.037938
H       1.634158   -0.589391   -1.667454
H       1.750691    1.102706   -1.147441
H       3.273095    0.353435    0.626410
H       1.206098    1.081832    1.731946
H       0.912178   -0.617041    2.149810
H       1.966261   -2.396390    0.359586
H       3.963490   -3.006596   -0.948890
H       4.534845   -1.316919   -0.871151
H       3.907343   -1.341314    2.456339
H       3.351385   -3.030369    2.296666
