19

C       0.017788    1.450874   -0.045326
C      -0.025911   -0.057491   -0.000842
O       0.346672   -0.585247   -1.268124
C      -0.134929   -1.936031   -1.342938
C      -0.862304   -2.172356   -0.018720
C       0.061025   -2.151142    1.210576
C      -0.689175   -1.021843    1.870808
C       0.641662   -0.731748    1.213946
C      -1.333676   -0.767183    0.465118
H       1.032179    1.797773   -0.266529
H      -0.648807    1.830123   -0.825553
H      -0.286547    1.871380    0.917404
H      -0.798100   -2.029082   -2.213981
H       0.707746   -2.626636   -1.479454
H      -1.608395   -2.967683   -0.021632
H       0.586068   -2.977699    1.671934
H      -1.033985   -0.875958    2.882525
H       1.592313   -0.501050    1.678206
H      -2.318801   -0.364871    0.239199
