15

C       0.011060    1.512228   -0.045067
C       1.513780    1.949453   -0.028536
C       2.166747    0.783547    0.652843
C       3.279124    0.330428    1.275387
O       3.102154   -0.957839    1.648034
N       1.822202   -1.387633    1.259559
C       1.301262   -0.342744    0.678457
C      -0.012820   -0.047440    0.015662
H      -0.480109    1.907631    0.849617
H      -0.527025    1.904637   -0.911073
H       1.896730    2.073409   -1.049261
H       1.654574    2.906008    0.482130
H       4.235726    0.755190    1.537466
H      -0.876822   -0.437765    0.558374
H      -0.035699   -0.485251   -0.989561
