23

C      -0.799536    0.434337   -0.098078
C       0.711040    0.643770    0.115521
C       1.252803   -0.170830    1.199000
C       1.683535   -0.851707    2.097481
C       2.219792   -1.651860    3.160676
C       1.354117   -2.062036    4.354665
C      -0.072853   -1.583588    4.497619
C       1.777538   -3.104799    3.352975
C       0.815465   -3.768858    2.394306
H      -1.358468    0.689972    0.806367
H      -1.161537    1.063668   -0.916743
H      -1.015747   -0.608968   -0.344436
H       1.244245    0.417674   -0.817324
H       0.904732    1.704683    0.321664
H       3.262411   -1.446210    3.388049
H       1.898863   -2.089109    5.295314
H      -0.554138   -1.438541    3.528331
H      -0.670710   -2.298441    5.073826
H      -0.104361   -0.622723    5.022378
H       2.576913   -3.760261    3.690008
H       0.097523   -3.058448    1.979640
H       1.357660   -4.211633    1.551919
H       0.257263   -4.570718    2.890260
