14

O       0.080186    1.322967    0.007118
C      -0.053014   -0.012463    0.001225
C      -1.222146   -0.677854    0.004438
C      -1.189109   -2.113156   -0.002850
C      -0.003487   -2.767082   -0.012700
O       0.122929   -4.111551   -0.020064
C       1.243855   -2.024641   -0.016012
N       2.363767   -2.633289   -0.025176
O       1.148524   -0.645477   -0.008613
H       1.022152    1.532816    0.002858
H      -2.149609   -0.124610    0.012344
H      -2.113597   -2.677905   -0.000496
H       1.082159   -4.278823   -0.026301
H       3.162049   -2.003310   -0.026467
