22

C       0.082897    1.489415   -0.434782
C       0.121127    0.001224   -0.134180
N       1.283469   -0.841799   -0.717105
C       2.109395   -0.290061    0.457177
C       0.758814   -0.613289    1.148960
C       0.362025   -0.435167    2.594107
C       0.859473   -1.922583    0.310307
C      -0.282281   -2.829207   -0.120956
O       0.073172   -3.485553   -1.327619
H      -0.020283    1.643576   -1.514232
H      -0.794651    1.935212    0.046077
H       0.960637    2.045778   -0.100222
H      -0.845933   -0.419792   -0.416371
H       2.970295   -0.915494    0.709914
H       2.413846    0.749786    0.341875
H       0.419251    0.617693    2.891432
H      -0.664255   -0.776650    2.768126
H       1.022285   -1.005767    3.256327
H       1.717248   -2.558471    0.557167
H      -0.429271   -3.608930    0.635439
H      -1.241101   -2.302335   -0.224263
H       0.490035   -2.814051   -1.882787
