19

C       0.004876    1.576726    0.012543
C       0.083759    0.051926   -0.026272
C       0.902060   -0.572684   -1.149330
C       2.387430   -0.714888   -0.835599
C       2.956023   -0.001855    0.379061
O       2.017505    0.066187    1.459319
C       0.801317   -0.590896    1.183700
O       1.034123   -1.937071    0.796266
C       1.440667   -1.848404   -0.557630
H       0.995977    2.031358    0.076347
H      -0.488508    1.959960   -0.886263
H      -0.573603    1.916717    0.878231
H      -0.931842   -0.362632   -0.071121
H       0.566683   -0.507246   -2.177402
H       3.067611   -0.809702   -1.676103
H       3.847505   -0.534033    0.737790
H       3.263554    1.021230    0.123220
H       0.237117   -0.592831    2.116836
H       1.481270   -2.809402   -1.053457
