17

C       0.026820    1.498875   -0.075844
N      -0.036788    0.048399    0.002865
C      -0.013492   -0.609367    1.289987
C       0.389450    0.106426    2.548254
C      -1.047777   -0.322077    2.348905
C      -0.104537   -0.762699   -1.088761
O      -0.158248   -1.977653   -1.063763
C      -0.100671   -0.071758   -2.394364
N      -0.104206    0.387731   -3.455134
H       0.996066    1.869247    0.273416
H      -0.115777    1.818825   -1.107387
H      -0.762972    1.953501    0.531470
H       0.293603   -1.639879    1.176387
H       1.010909   -0.438353    3.249794
H       0.598419    1.168652    2.509780
H      -1.774395    0.459588    2.155548
H      -1.436731   -1.162863    2.911329
