14

C       0.076921    1.506802   -0.097376
C       0.016854    0.055134   -0.035735
C      -0.040402   -1.146484    0.022897
C      -0.057802   -2.583013    0.061016
O      -0.357285   -3.228293    1.299503
C      -1.304139   -3.384291    0.242865
C      -2.614538   -2.691593    0.440884
O      -3.638270   -3.061682   -0.073827
H       0.866174    1.839162   -0.779971
H      -0.870756    1.929303   -0.447931
H       0.288570    1.931598    0.889737
H       0.731480   -3.074301   -0.508299
H      -1.358890   -4.370166   -0.216611
H      -2.559784   -1.807470    1.109146
