17

O       0.111114    1.357636   -0.117615
C       0.025594   -0.029840    0.073972
C      -1.389753   -0.506963    0.127215
N      -2.392233    0.279658    0.059975
C      -3.550789   -0.592989    0.095460
C      -3.585051   -1.827175   -0.842336
C      -2.179755   -2.196814   -1.265311
N      -1.684067   -1.923855    0.172973
C      -3.141532   -1.933198    0.596429
H      -0.799999    1.684187   -0.119250
H       0.553587   -0.566899   -0.730601
H       0.520232   -0.333934    1.011199
H      -4.505693   -0.152105    0.349222
H      -4.512933   -2.138464   -1.304803
H      -2.068721   -3.262246   -1.473421
H      -1.674906   -1.610425   -2.040988
H      -3.486357   -2.497774    1.453552
