19

C      -0.010535    1.445320    0.029024
C       0.014510   -0.051317   -0.028657
C      -0.940012   -0.969349    0.739012
C       0.556638   -1.075061    0.946568
C       0.579594   -2.106874   -0.229564
C       1.499920   -3.266740   -0.458040
C      -0.990432   -2.143142   -0.270965
O      -1.031243   -1.581273   -1.603103
C       0.236744   -0.977398   -1.260514
H       0.945211    1.876144   -0.290594
H      -0.795088    1.850066   -0.620695
H      -0.206602    1.798395    1.047018
H      -1.704600   -0.589908    1.403696
H       1.158284   -0.962634    1.837813
H       1.438391   -3.992242    0.360987
H       1.239614   -3.783195   -1.388537
H       2.543011   -2.938893   -0.533335
H      -1.641068   -3.004905   -0.123817
H       0.830420   -0.653970   -2.116191
