18

O      -0.183810    1.346441    0.146053
C      -0.014393   -0.034413    0.042081
C      -0.395588   -0.806023    1.283354
O      -0.812770   -0.064779    2.385066
C      -1.302608   -0.852517    0.064280
N      -2.506024   -0.061551    0.125674
C      -3.467768   -0.293990   -0.940224
C      -4.515791    0.807319   -0.983179
O      -5.648686    0.648702   -1.351139
H      -1.143157    1.481830    0.022456
H       0.829832   -0.331138   -0.571789
H       0.145095   -1.710823    1.546283
H      -0.552319    0.849961    2.192735
H      -1.348304   -1.784226   -0.495717
H      -2.928332   -0.144908    1.045350
H      -2.933181   -0.249517   -1.900133
H      -3.978346   -1.267741   -0.900675
H      -4.133583    1.800388   -0.652857
