17

C      -0.250724    1.439598    0.090838
C      -0.075213   -0.054774   -0.124722
C       0.922222   -0.412254   -1.218740
C       1.020437   -1.932454   -1.350316
C       1.303440   -2.590134   -0.013839
O       1.793142   -3.680825    0.101160
C       0.938684   -1.800207    1.282907
O       1.204042   -2.234238    2.365728
O       0.342166   -0.594886    1.155430
H       0.709161    1.909848    0.323733
H      -0.660000    1.905192   -0.810456
H      -0.935588    1.625789    0.921388
H      -1.049142   -0.506391   -0.362790
H       0.602654    0.037619   -2.163867
H       1.898944    0.019962   -0.968355
H       0.060867   -2.336383   -1.704813
H       1.780373   -2.259418   -2.065038
