19

C       0.050660   -1.122445    0.047640
C       0.021093    0.081050    0.018406
C      -0.045272    1.507728   -0.005573
C       0.369437    2.275422   -1.252547
C       1.196492    2.415237   -0.006506
C       0.794041    3.415826    1.093416
C      -0.695138    3.738073    0.796887
C      -0.878220    2.226562    1.090919
C       0.230917    2.432621    2.180379
H       0.083554   -2.183008    0.072275
H       0.803358    1.658452   -2.032321
H      -0.238312    3.087702   -1.631385
H       2.191149    1.986214    0.019122
H       1.512801    4.199049    1.335294
H      -1.134110    4.346799    1.589783
H      -0.985802    4.149582   -0.169952
H      -1.850750    1.792775    1.320012
H       0.839878    1.564984    2.445939
H      -0.131999    2.940689    3.077949
