12

N      -0.116160    1.316471    0.238322
C      -0.065689    0.085651   -0.055939
O       1.115219   -0.485422   -0.486443
C       1.248709   -1.815709   -0.825401
O       2.307206   -2.219564   -1.186998
C      -0.007998   -2.709272   -0.710711
O       0.078800   -3.877971   -1.000751
C      -1.239439   -2.063692   -0.249541
C      -1.252025   -0.758522    0.052543
H       0.796582    1.757987    0.107344
H      -2.120030   -2.691327   -0.169323
H      -2.140637   -0.242929    0.396561
