18

O       0.199779    1.378324    0.265584
C       0.091107   -0.017303    0.041112
C      -1.363621   -0.498105    0.069741
C      -1.500046   -2.001045   -0.101992
C      -2.944319   -2.541972   -0.045851
N      -2.853857   -3.608802   -1.023101
C      -1.830066   -3.378759   -1.919905
O      -1.626236   -3.924048   -2.967371
O      -1.029730   -2.393367   -1.407609
H      -0.131923    1.830587   -0.516365
H       0.563755   -0.317287   -0.903947
H       0.653960   -0.494539    0.851463
H      -1.814867   -0.206678    1.026131
H      -1.935414   -0.000747   -0.724656
H      -0.880741   -2.526498    0.637766
H      -3.202218   -2.910878    0.950625
H      -3.671922   -1.767708   -0.330460
H      -3.668585   -4.084998   -1.374534
