16

O      -0.022667    1.388530   -0.030182
C      -0.008354   -0.007215   -0.026438
C      -0.492151   -0.769819    1.199256
C      -1.345348   -0.660698   -0.033872
C      -2.648789    0.135624   -0.097312
N      -3.516979   -0.862575   -0.690142
C      -2.826421   -1.922821   -1.224438
O      -3.239783   -2.815046   -1.909086
O      -1.514706   -1.820187   -0.827329
H       0.696818    1.700088    0.529160
H       0.769339   -0.479843   -0.625262
H      -0.029112   -1.728075    1.406681
H      -0.796526   -0.192463    2.066713
H      -2.992900    0.444183    0.894529
H      -2.539204    1.032887   -0.719003
H      -4.423174   -0.647256   -1.069604
