17

C      -0.243963    1.458217   -0.016179
N       0.010018    0.019921    0.007194
C       1.218525   -0.472529   -0.790135
C       2.151558   -0.034576    0.381684
C       0.875055   -0.506945    1.163648
C       0.856995   -2.004968    0.803017
C       1.088302   -1.973892   -0.509429
C       0.575863   -0.088326    2.514221
N       0.343532    0.266530    3.589595
H       0.631235    2.116579    0.100407
H      -0.722699    1.697203   -0.971117
H      -0.954217    1.696572    0.781258
H       1.333173   -0.117183   -1.812422
H       3.074467   -0.592043    0.549131
H       2.328650    1.039900    0.442779
H       0.665495   -2.816127    1.487891
H       1.146688   -2.776807   -1.228466
