19

C      -0.027971    1.499402   -0.153774
C       1.344747    0.852306   -0.015329
O       2.078932    0.308697   -1.092451
C       1.451287   -0.966903   -1.281362
C       1.819535   -2.050610   -0.245925
C       1.302889   -1.770790    1.198185
C      -0.018386   -0.943797    1.262529
C       0.103859    0.024428    0.117813
O       0.073078   -0.698030   -1.116909
H      -0.303087    2.175555    0.650542
H      -0.409999    1.755553   -1.135047
H       1.945229    1.119071    0.847970
H       1.651718   -1.286858   -2.307073
H       1.364972   -2.972936   -0.626293
H       2.902470   -2.211946   -0.231284
H       1.192977   -2.720504    1.731689
H       2.070263   -1.205421    1.737113
H      -0.905151   -1.572740    1.132586
H      -0.102832   -0.443791    2.232674
