16

C       0.244201    1.027381    0.569724
N      -0.419531    0.144396   -0.398834
C       0.433983   -0.503347   -1.312559
C       0.877859   -0.169703   -2.579722
C       1.709522   -1.238757   -3.021097
O       2.369690   -1.347611   -4.213389
C       1.764698   -2.183408   -2.024137
N       0.978397   -1.714057   -0.987275
H       0.936947    0.440354    1.179163
H       0.815341    1.845142    0.103826
H      -0.509038    1.457982    1.236342
H      -1.135813    0.655656   -0.899437
H       0.648877    0.740711   -3.114494
H       2.184341   -0.560563   -4.732596
H       2.288170   -3.121935   -1.969690
H       0.734151   -2.223598   -0.156466
