19

C      -0.044309    1.402548    0.101057
C       0.011928   -0.085273    0.038439
C      -0.029736   -0.929379   -1.008749
C       0.027087   -2.306380   -0.377233
C      -1.014601   -2.088326    0.809318
O      -1.294691   -3.143937    1.665901
C       0.094518   -1.025800    1.235197
C       1.148977   -2.041375    0.694209
O       1.411926   -3.088048    1.620954
H       0.849072    1.820911    0.581763
H      -0.125049    1.837098   -0.899739
H      -0.904041    1.746251    0.690210
H      -0.114290   -0.702370   -2.062961
H       0.017403   -3.196904   -1.006915
H      -1.968357   -1.654561    0.499579
H      -0.442087   -3.496319    1.960392
H       0.155935   -0.615165    2.243294
H       2.085335   -1.614772    0.314165
H       1.928366   -3.764783    1.170275
