21

C       0.080838    1.503955   -0.020402
C      -0.143468    0.018205   -0.242859
O       0.960870   -0.501766   -0.964980
C       0.905302   -1.883187   -1.172237
C       0.113230   -2.474769   -2.384223
C       1.160566   -1.810995   -3.323675
C       1.972948   -2.450192   -2.144146
O       3.339666   -2.499430   -1.962241
C       1.072893   -3.697948   -2.279980
H       1.001939    1.672732    0.544774
H       0.165061    2.027605   -0.976989
H      -0.754383    1.935865    0.538940
H      -0.240545   -0.507780    0.721219
H      -1.077790   -0.153393   -0.800044
H       0.781937   -2.420260   -0.219957
H      -0.964620   -2.507412   -2.520916
H       1.294933   -2.275731   -4.303376
H       1.147877   -0.722675   -3.377810
H       3.646286   -1.601951   -1.789742
H       0.976565   -4.335905   -1.396870
H       1.198872   -4.282599   -3.193002
