19

O      -0.053543    1.362681    0.017753
C       0.062730   -0.027277   -0.039745
C       1.099076   -0.663384   -0.969520
C       0.345313   -1.824399   -1.663388
C      -0.830436   -2.182172   -0.721004
C      -0.376476   -3.011850    0.493465
O       0.247978   -2.081194    1.388177
C      -0.357277   -0.828607    1.178102
C      -1.211973   -0.843020   -0.059902
H       0.666042    1.699312    0.563232
H       1.447776    0.086112   -1.684536
H       1.965257   -1.027033   -0.407168
H      -0.062338   -1.474291   -2.617402
H       0.985861   -2.685839   -1.878360
H      -1.658293   -2.661531   -1.247990
H      -1.237906   -3.487156    0.986466
H       0.357989   -3.785346    0.249055
H      -0.650852   -0.302271    2.081377
H      -2.200027   -0.404876   -0.112980
