23

C       0.041361    1.494414    0.135751
C       0.009104    0.040817    0.052116
C       0.000429   -1.161548   -0.018531
C      -0.061475   -2.622207   -0.087701
C      -1.527456   -3.100653   -0.011471
C       0.739730   -3.178409   -1.313773
C       0.805508   -4.712837   -1.271189
C       0.172087   -2.692693   -2.648071
O       2.069678   -2.655374   -1.269303
H       0.854860    1.908942   -0.470003
H      -0.895361    1.937500   -0.220602
H       0.193538    1.831358    1.167387
H       0.453383   -3.022139    0.801094
H      -1.590473   -4.191285    0.025272
H      -2.000743   -2.703201    0.889928
H      -2.102100   -2.745766   -0.871021
H      -0.170368   -5.178770   -1.432819
H       1.485510   -5.063017   -2.052427
H       1.190579   -5.062685   -0.305466
H       0.106616   -1.602399   -2.657229
H       0.834725   -3.006390   -3.459190
H      -0.820958   -3.109373   -2.835258
H       2.444936   -2.864305   -0.406903
