18

N       0.094026    1.420466   -0.455811
C       0.032955    0.062242   -0.091436
C      -1.073395   -0.699791    0.166693
O      -0.688867   -1.999689    0.399270
C       0.661524   -2.048020    0.292016
C       1.161771   -0.823927   -0.009206
C      -2.508598   -0.399548    0.222357
C      -3.543200   -1.396752   -0.263498
C      -3.424869   -1.101103    1.206838
H       0.898045    1.884940   -0.051621
H      -0.737715    1.931738   -0.188353
H       1.112836   -3.012544    0.455898
H       2.199054   -0.568535   -0.163285
H      -2.732901    0.644157    0.024805
H      -4.402651   -1.015817   -0.804058
H      -3.171645   -2.352238   -0.615023
H      -2.975157   -1.859578    1.837055
H      -4.202832   -0.515482    1.684344
