17

C       0.058837    1.502272    0.255389
C       0.176018   -0.013059    0.069460
C      -1.211545   -0.651856    0.000250
O      -1.521701   -1.684833    0.533077
C       0.907282   -0.439310   -1.194129
C       1.383374   -1.863028   -1.287854
N       1.049167    0.447477   -2.103751
O       1.732577   -0.045552   -3.222087
H       1.048137    1.965179    0.253010
H      -0.514985    1.955283   -0.556677
H      -0.434129    1.732796    1.204691
H       0.685810   -0.475423    0.922559
H      -1.932544   -0.082415   -0.630267
H       1.328654   -2.223516   -2.316458
H       2.431335   -1.931580   -0.971800
H       0.791624   -2.509528   -0.635829
H       1.739861    0.718748   -3.808111
