20

C      -0.036007    1.619597    0.004550
C       0.144520    0.101803    0.038854
C       1.329741   -0.767250   -0.288015
O       1.343529   -1.705584   -1.306223
C       2.639741   -0.376258    0.430064
C       2.559598    0.743356    1.392840
N       2.012419   -0.570141    1.784743
C       0.697223   -0.881127    1.077768
C      -0.135703   -1.936042    1.738506
H       0.829884    2.138578   -0.415041
H      -0.895291    1.870150   -0.625456
H      -0.235600    2.038197    0.996402
H      -0.727882   -0.405410   -0.374651
H       1.372052   -1.239658   -2.149509
H       3.569356   -0.881282    0.185492
H       3.472597    0.970232    1.939509
H       1.912278    1.593826    1.248295
H      -0.621958   -1.540845    2.638425
H      -0.913358   -2.302408    1.062524
H       0.489234   -2.781350    2.041761
