15

C      -0.017008    1.535185    0.039356
C       0.025062    0.036289    0.015791
C      -0.877706   -0.875359    0.802030
C       0.614703   -0.948276    1.021840
C       1.320546   -1.690084   -0.155284
O       0.336937   -2.141568   -1.099112
C       0.746789   -0.767316   -1.125706
H       0.963836    1.969596   -0.188608
H      -0.731193    1.926870   -0.695694
H      -0.320919    1.903069    1.024529
H      -1.424769   -0.385372    1.602000
H      -1.397472   -1.694962    0.321871
H       1.088468   -0.738346    1.971989
H       2.267495   -2.215237   -0.129165
H       1.120726   -0.369885   -2.062467
