19

O      -0.141847    1.404332    0.016635
C      -0.024065    0.018609    0.025004
C       0.343633   -0.810515    1.297939
C      -0.364983   -1.940154    0.495650
C      -1.315825   -0.830092   -0.038387
C       0.565612   -2.150910   -0.737074
C       0.861796   -0.645247   -1.054595
C       1.795263   -2.972620   -0.445871
O       2.058613   -4.021611   -0.977149
H       0.740346    1.789248   -0.023518
H       1.396512   -0.923436    1.570151
H      -0.239077   -0.495065    2.165463
H      -0.748392   -2.836296    0.979770
H      -2.047783   -0.514201    0.707530
H      -1.793103   -0.975204   -1.011522
H       0.030700   -2.647457   -1.550441
H       0.563586   -0.367817   -2.068448
H       1.920362   -0.386717   -0.927650
H       2.477724   -2.541264    0.323564
