22

C       0.484661    1.052303    0.469607
C       0.220289   -0.388415    0.006376
C      -1.242331   -0.791425    0.083100
C      -2.153880   -0.069196   -0.862188
O      -1.789811    0.601814   -1.796384
C      -1.679466   -2.216947    0.378306
C      -0.696487   -3.346531    0.604025
N      -1.949462   -1.156904    1.330025
C      -1.259413   -1.111851    2.611706
H       1.546613    1.295737    0.368851
H      -0.081924    1.763957   -0.135069
H       0.207839    1.196947    1.518453
H       0.523446   -0.485582   -1.041851
H       0.844753   -1.080095    0.576204
H      -3.231498   -0.225706   -0.631402
H      -2.584252   -2.556733   -0.129408
H       0.222479   -3.036967    1.102400
H      -1.161726   -4.127649    1.215339
H      -0.422879   -3.798858   -0.354630
H      -0.189647   -1.357771    2.587270
H      -1.366567   -0.107815    3.032456
H      -1.752250   -1.813548    3.292281
