19

C      -0.298537    1.434497   -0.079949
C      -0.049352   -0.068651   -0.048694
C       1.162554   -0.536544   -0.946676
O       1.659243    0.324155   -1.934231
C       1.975851   -0.683840    0.348288
O       3.158949   -0.689861    0.564459
C       0.737559   -0.574728    1.183432
C       0.671479   -0.170282    2.635350
C       0.319770   -1.571332    2.247124
H       0.618300    1.994476    0.128537
H      -0.657678    1.745917   -1.064564
H      -1.046409    1.722118    0.666032
H      -0.971161   -0.618886   -0.255251
H       0.948077   -1.528468   -1.372088
H       2.577647    0.515381   -1.709548
H       1.620699    0.006924    3.130048
H      -0.129717    0.501716    2.923878
H      -0.725633   -1.862357    2.255059
H       1.017679   -2.367183    2.484731
