26

C      -1.914334    1.529710    1.552352
C      -1.815737    0.002808    1.484668
C      -1.434535   -0.509346    0.089792
C      -1.330395   -2.043767   -0.035892
C      -2.728754   -2.696909   -0.059341
C      -2.737639   -4.199674    0.241197
C      -0.508809   -2.446658   -1.278735
C       1.000432   -2.213847   -1.151820
H      -2.175012    1.870251    2.559496
H      -0.963872    2.000851    1.277303
H      -2.679271    1.907985    0.864895
H      -1.069097   -0.347589    2.209770
H      -2.771178   -0.433108    1.801206
H      -2.164518   -0.143189   -0.647152
H      -0.476844   -0.052336   -0.188777
H      -0.799135   -2.419177    0.853087
H      -3.376656   -2.196152    0.669128
H      -3.184993   -2.513046   -1.042198
H      -2.140167   -4.769376   -0.477569
H      -2.333148   -4.402232    1.239330
H      -3.755809   -4.600550    0.208941
H      -0.676023   -3.507804   -1.496427
H      -0.896536   -1.897885   -2.148426
H       1.244358   -1.161547   -0.974363
H       1.418157   -2.793202   -0.320671
H       1.522879   -2.519779   -2.063920
