21

C      -0.425983    1.658617    0.144213
C      -0.138181    0.166006    0.140958
C      -1.336895   -0.639436   -0.377143
O      -1.559878   -0.364945   -1.744547
O       1.000356   -0.151430   -0.723067
C       1.634478   -0.921025    0.326472
C       0.572268   -0.492365    1.356976
C       1.078552    0.401799    2.472979
O       1.854158   -0.422727    3.332730
H       0.478457    2.240356    0.334572
H      -0.827253    1.947140   -0.830945
H      -1.173739    1.906892    0.905110
H      -1.152021   -1.712924   -0.210056
H      -2.250334   -0.369271    0.164836
H      -0.696455   -0.475506   -2.165566
H       1.662047   -1.991470    0.092476
H       2.654522   -0.574424    0.525452
H       0.011868   -1.319289    1.802158
H       1.685395    1.221571    2.059454
H       0.231045    0.855622    3.010732
H       2.235176    0.131276    4.020232
