20

C       0.871626   -0.007013   -1.261926
O       0.047953    0.060325   -0.109990
C       0.499437   -0.662911    0.997615
C      -0.604139   -0.727348    2.098427
C      -0.411450   -2.263657    2.200091
C       0.417023   -2.226213    0.885626
C       1.821744   -0.081239    1.542838
N       2.526093   -0.881218    2.399069
O       2.202838    1.034655    1.250894
H       1.028093   -1.046677   -1.587067
H       0.340328    0.526578   -2.053308
H       1.841252    0.471480   -1.092394
H      -0.443717   -0.130953    2.998364
H      -1.559227   -0.449102    1.649093
H       0.171824   -2.562098    3.076387
H      -1.316790   -2.873073    2.185748
H      -0.188612   -2.492954    0.016859
H       1.351092   -2.791820    0.846020
H       2.213261   -1.788434    2.692717
H       3.336937   -0.482593    2.843663
