19

C       0.253473    1.216453    1.061637
C      -0.146157    0.317344   -0.106539
O       0.731755   -0.808620   -0.244591
C      -1.570594   -0.141101   -0.021460
C      -2.673268    0.249807    0.694180
N      -3.770476   -0.515321    0.365519
C      -3.348992   -1.373137   -0.540692
C      -4.174472   -2.429160   -1.196241
N      -2.024467   -1.179217   -0.813399
H       1.303098    1.503421    0.963026
H      -0.356699    2.124377    1.083776
H       0.118191    0.695895    2.015978
H       0.009137    0.870014   -1.043128
H       0.656621   -1.326445    0.565962
H      -2.744633    1.043718    1.422064
H      -4.217279   -2.298711   -2.283756
H      -3.784079   -3.434722   -1.000132
H      -5.189470   -2.371070   -0.801501
H      -1.431606   -1.726408   -1.416255
