15

O       0.002796   -0.012008   -0.057955
C      -0.029521    1.191283   -0.010761
C      -1.229799    2.065599    0.097610
C      -0.875668    3.356315    0.040738
C       0.603860    3.536627   -0.039943
C       1.359104    3.022996    1.161347
C       1.183800    2.131833   -0.074927
C       2.325509    1.764723   -0.848984
C       3.280662    1.445836   -1.505734
H      -2.226085    1.661477    0.216122
H      -1.553348    4.200587    0.100042
H       1.032890    4.333057   -0.635032
H       2.365849    3.389209    1.328691
H       0.793337    2.778224    2.053665
H       4.121256    1.156030   -2.085819
