21

C      -0.125309    1.488807    0.161937
C       0.133339   -0.014694    0.107740
C       0.814308   -0.508627   -1.178770
C       1.261718   -1.935879   -0.829824
O       2.348176   -2.443074   -1.585672
C       1.696154   -1.837294    0.661329
C       1.072233   -0.540550    1.219781
C       1.328512   -3.101296    1.405330
O       0.687835   -3.153785    2.424636
H       0.811297    2.050306    0.064858
H      -0.792848    1.810269   -0.644607
H      -0.588813    1.775966    1.111631
H      -0.829929   -0.535956    0.200798
H       0.165856   -0.468211   -2.060813
H       1.709826    0.090900   -1.389107
H       0.396326   -2.614636   -0.917215
H       2.048688   -2.580464   -2.490104
H       2.793104   -1.796307    0.648735
H       1.854456    0.198787    1.422278
H       0.548494   -0.731495    2.159289
H       1.698234   -4.030496    0.914153
