21

C       0.241454    1.497567   -0.166798
C      -0.079579    0.001825    0.004567
C      -1.562472   -0.240072    0.209955
C      -1.819872   -0.993064    1.275101
C      -0.565075   -1.434682    1.986812
C       0.579398   -0.655009    1.276573
C       1.743848   -1.535103    0.751487
C       1.472512   -1.641439   -0.730577
C       0.505214   -0.820075   -1.131172
H       1.322625    1.661271   -0.226666
H      -0.205216    1.894675   -1.085560
H      -0.151210    2.079382    0.673966
H      -2.306688    0.164532   -0.469034
H      -2.809103   -1.299453    1.599271
H      -0.600676   -1.227761    3.063440
H      -0.431981   -2.521629    1.893984
H       0.953724    0.122062    1.948070
H       2.723081   -1.071622    0.934681
H       1.779629   -2.513847    1.245417
H       2.035597   -2.304641   -1.379310
H       0.158180   -0.710122   -2.153842
