12

O       0.080735    1.303608    0.200270
C       0.068338   -0.026658    0.003904
C       0.085713   -0.783716   -1.162660
C       0.057830   -2.122721   -0.697677
C       0.025975   -2.118244    0.682395
N       0.032147   -0.811549    1.129327
N      -0.000594   -3.382502    1.136228
N       0.011589   -4.189883    0.164655
O       0.051242   -3.376572   -1.111575
H       0.106510    1.747847   -0.653544
H       0.113902   -0.404401   -2.170393
H       0.014550   -0.464937    2.072405
