21

C      -0.115512    1.531118    0.030562
C       0.037468    0.014392   -0.015747
C       1.083781   -0.590752   -1.006922
C       2.388405   -0.029816   -0.366001
O       2.118949   -0.065128    1.041356
C       0.777968   -0.628810    1.172906
C       0.859191   -2.088256    0.738912
C       0.878550   -3.248971    1.675566
C       1.037300   -2.048748   -0.589575
H       0.802965    2.021861    0.360210
H      -0.388077    1.929680   -0.952842
H      -0.910202    1.812891    0.729761
H      -0.932589   -0.462991   -0.175126
H       0.963088   -0.367515   -2.067285
H       3.263344   -0.646604   -0.600489
H       2.591778    1.003192   -0.674055
H       0.432338   -0.418607    2.185455
H      -0.041158   -3.302290    2.271931
H       0.990710   -4.196084    1.139776
H       1.708808   -3.161592    2.387852
H       1.240994   -2.886497   -1.246436
