16

C      -0.002731    1.479451   -0.054349
C      -0.018565   -0.009692    0.015662
O       0.835079   -0.736709   -0.878200
C      -0.051245   -1.893713   -0.764878
C       0.549843   -2.796512    0.301903
O       0.563462   -1.975636    1.478004
C      -0.291886   -0.883923    1.233210
C      -1.112466   -1.059745   -0.013577
H       0.993824    1.861486    0.192423
H      -0.265459    1.828241   -1.058265
H      -0.716195    1.902895    0.658879
H      -0.279746   -2.346084   -1.730344
H      -0.055133   -3.701920    0.466002
H       1.577685   -3.083628    0.061463
H      -0.703410   -0.442317    2.133197
H      -2.186711   -1.039629   -0.138514
