15

O      -0.081239    1.426804    0.024094
C       0.021200    0.014036    0.011540
C       0.695991   -0.532388   -1.258468
C      -0.062685   -0.100619   -2.528219
C       0.587810   -0.563866   -3.746297
C       1.146519   -0.956636   -4.734996
C       0.716798   -0.479552    1.218058
N       1.290418   -0.846794    2.151467
H       0.808565    1.795086    0.080822
H      -1.013814   -0.345506    0.053962
H       1.730328   -0.172653   -1.300327
H       0.744024   -1.624284   -1.198865
H      -1.089623   -0.487663   -2.488160
H      -0.149936    0.991408   -2.538213
H       1.628920   -1.298163   -5.617187
