18

C       0.162904    1.513599   -0.222021
C       0.108188    0.036296    0.046226
O      -1.238228   -0.452206    0.257195
C      -0.871104   -1.095647    1.507795
C       0.610882   -0.772146    1.274491
N       1.244780   -1.763965    0.371397
C       0.967150   -0.938620   -0.831973
C       0.212020   -1.645188   -1.938418
O       0.161462   -1.237428   -3.070694
H       1.197075    1.867204   -0.271951
H      -0.320000    1.733358   -1.180598
H      -0.364551    2.066339    0.560718
H      -1.333256   -0.583359    2.361113
H      -1.122026   -2.160466    1.522219
H       1.216371   -0.380565    2.092935
H       2.229860   -1.916996    0.546228
H       1.836432   -0.427484   -1.263099
H      -0.313276   -2.567347   -1.611144
