15

C      -0.067798    1.530091   -0.015054
C       0.001323    0.025416    0.012256
C       0.077195   -0.714502   -1.178844
C       0.138940   -2.095064   -1.106240
N       0.130914   -2.782132    0.044948
C       0.059044   -2.074427    1.164235
O       0.050356   -2.757103    2.329254
C      -0.007573   -0.676849    1.208664
H       0.811500    1.953519   -0.512766
H      -0.946269    1.871644   -0.573455
H      -0.122086    1.948147    0.992905
H       0.087531   -0.216622   -2.142167
H       0.198298   -2.692726   -2.012447
H       0.102380   -3.691843    2.085015
H      -0.064285   -0.173901    2.166861
