17

C       0.111970   -3.753360   -0.017093
C       0.060186   -2.545655    0.000191
C       0.007194   -1.189852    0.019473
C      -0.065277    0.023080    0.035571
C      -0.068505    1.431002    0.059591
C      -1.149579    2.230649    0.055425
C      -0.781815    3.689519    0.034303
C       0.732148    3.680042    0.368143
C       1.219347    2.247822    0.040096
H       0.151269   -4.814024   -0.032246
H      -2.172326    1.873524    0.029568
H      -0.981742    4.117630   -0.959212
H      -1.367889    4.285220    0.743200
H       1.289539    4.447549   -0.173852
H       0.867746    3.873821    1.436521
H       1.958049    1.874459    0.755448
H       1.683851    2.184112   -0.952396
