19

C      -0.114593    1.498744   -0.102666
C      -0.003976    0.012454    0.058503
C       1.234392   -0.794645   -0.242264
C       0.651621   -0.800878    1.165388
C       1.416952   -0.256310    2.341703
N      -0.262195   -1.890982    1.443681
C      -1.236666   -1.744466    0.627999
N      -2.294199   -2.595957    0.444087
O      -1.234264   -0.668980   -0.209419
H       0.825458    1.979094    0.181051
H      -0.328294    1.768420   -1.142683
H      -0.912800    1.903991    0.527433
H       1.144754   -1.693923   -0.843185
H       2.144237   -0.223170   -0.398700
H       2.027761    0.605165    2.055718
H       0.736215    0.051090    3.142058
H       2.084256   -1.024280    2.746123
H      -2.430524   -3.236066    1.211596
H      -3.139568   -2.156853    0.111060
