20

C       0.172137    1.428619   -0.204032
N       0.019041    0.005175    0.085247
C       0.857121   -0.397817    1.213845
C      -1.336727   -0.525792    0.146082
C      -2.216866   -0.052316   -1.040021
C      -1.253205   -2.053495   -0.026868
O      -2.112317   -2.826320    0.306743
C      -2.124460   -0.199156    1.425282
O      -1.867032    0.728898    2.148784
H       1.239988    1.637987   -0.325279
H      -0.315262    1.688588   -1.145883
H      -0.217787    2.081427    0.589890
H       0.623926    0.135153    2.147027
H       0.750466   -1.471896    1.401981
H       1.906324   -0.212730    0.962350
H      -1.707106   -0.253869   -1.987067
H      -3.166829   -0.592044   -1.031276
H      -2.425562    1.017414   -0.971633
H      -0.323788   -2.376134   -0.544780
H      -2.969755   -0.888376    1.632339
