12

C      -0.045961   -1.143186    0.447855
C      -0.000488    0.006826    0.108161
C       0.049082    1.404656   -0.308827
C       1.411415    2.017630   -0.181425
N       2.109442    2.599672   -1.110130
C       3.232507    2.978541   -0.414639
N       3.240003    2.660113    0.849494
O       2.009395    2.010809    1.014231
H      -0.083396   -2.160507    0.750707
H      -0.248318    1.509678   -1.356263
H      -0.658981    1.995555    0.287233
H       4.062469    3.503053   -0.865043
