14

N      -0.004162    1.399329    0.215793
C       0.025010    0.028496    0.076582
C      -1.165941   -0.691327    0.020567
F      -2.331618   -0.020822    0.042375
C      -1.142047   -2.079788   -0.066836
O      -2.313228   -2.745912   -0.122289
N      -0.014760   -2.780062   -0.102494
C       1.135627   -2.094713   -0.053098
C       1.217252   -0.717621    0.034796
H       0.812051    1.900264   -0.097040
H      -0.876837    1.842775   -0.026074
H      -2.072258   -3.681064   -0.181645
H       2.043302   -2.691081   -0.086458
H       2.178306   -0.217618    0.076777
