18

C       0.007940    1.378665    0.343913
C       1.468441    1.552524   -0.179031
C       1.202922    0.247183   -0.925181
C       1.805430   -1.121853   -1.201957
C       0.470169   -1.595466   -1.856910
O       0.448892   -0.770580   -3.057319
C       0.142975    0.295450   -2.164521
C      -0.600308   -0.605688   -1.169568
N       0.076238   -0.099154    0.030953
H      -0.172498    1.571826    1.402986
H      -0.727247    1.936582   -0.248635
H       1.698990    2.434967   -0.778985
H       2.206898    1.449067    0.620022
H       2.607180   -1.176440   -1.940344
H       2.076037   -1.632411   -0.276983
H       0.291737   -2.653633   -2.038290
H      -0.157005    1.231523   -2.633581
H      -1.656367   -0.879820   -1.183962
