21

C      -0.821884    1.045519   -0.103561
C       0.245762   -0.018897    0.096459
C       1.458115   -0.049227   -0.880413
C       2.404850   -0.279105    0.329249
C       1.247839    0.147732    1.277035
C       2.836042   -1.745596    0.486854
O       3.604481   -2.193316   -0.627019
C       3.548028   -1.954071    1.752866
C       4.168189   -2.087973    2.774459
H      -0.374406    2.045281   -0.151639
H      -1.376147    0.883989   -1.035047
H      -1.546020    1.044338    0.719019
H      -0.228664   -1.005575    0.140757
H       1.472883   -0.815361   -1.659068
H       1.625103    0.925509   -1.349075
H       3.302730    0.346524    0.364212
H       1.340949    1.192582    1.587765
H       1.090904   -0.462645    2.170675
H       1.941531   -2.381535    0.474707
H       4.460579   -1.752664   -0.581425
H       4.706249   -2.225314    3.679815
