15

N       0.069434   -1.088847   -0.188762
C       0.022437    0.065030   -0.105862
C       0.027038    1.493532   -0.005069
C       0.436975    2.158823    1.303685
C       1.372023    2.213374    0.142595
C       2.721006    1.487701    0.082594
O       3.515524    2.359562   -0.759076
C       2.721237    3.415156   -1.038802
N       1.531776    3.447024   -0.591158
H      -0.710526    2.009527   -0.608830
H      -0.087877    3.069691    1.565188
H       0.690197    1.506774    2.132475
H       3.213932    1.410337    1.056192
H       2.673324    0.498444   -0.379711
H       3.183419    4.181001   -1.650214
