20

C      -0.112097    1.590250    0.001632
C       0.023117    0.064681   -0.026401
C       0.790481   -0.482728   -1.245880
C       2.281308   -0.114919   -1.201044
C       0.573199   -2.020383   -1.333603
O      -0.791275   -2.345655   -1.326453
C       1.223714   -2.625764   -2.562691
O       0.573152   -3.213915   -3.395033
H       0.855527    2.097058    0.072044
H      -0.615054    1.957644   -0.899984
H      -0.707518    1.907219    0.863436
H       0.523174   -0.281075    0.889505
H      -0.973489   -0.384046   -0.025378
H       0.340283   -0.050758   -2.150820
H       2.808279   -0.370386   -2.124809
H       2.410365    0.959625   -1.049601
H       2.787175   -0.625595   -0.372561
H       1.075752   -2.475723   -0.458707
H      -0.947260   -2.827953   -2.154266
H       2.319856   -2.517057   -2.663796
