19

C       0.077769    1.431115    0.004788
O      -0.113138    0.026071    0.052653
C       0.621928   -0.625972    1.062359
C       0.101120   -2.058706    1.253561
C       1.335590   -2.933727    1.218942
C       1.243159   -4.397542    1.492063
C       2.440902   -2.233418    0.910456
C       2.125605   -0.810602    0.714741
O       2.870713    0.072579    0.348857
H       1.114001    1.694031   -0.226455
H      -0.584055    1.808550   -0.778583
H      -0.201887    1.898689    0.962473
H       0.564388   -0.056320    2.005453
H      -0.465405   -2.194098    2.181824
H      -0.577600   -2.309926    0.429819
H       0.551323   -4.878371    0.789231
H       2.214594   -4.891361    1.417602
H       0.836207   -4.576858    2.495280
H       3.441136   -2.632575    0.793199
