15

N       0.049699    1.345783    0.117497
C      -0.057343   -0.018155    0.048206
N      -1.169773   -0.641747    0.005026
C      -1.037141   -2.075614    0.020285
C       0.033238   -2.719726    0.957072
O       0.119580   -3.880728    0.059052
C       0.082973   -2.726795   -0.850182
C       1.108520   -2.027372    0.080437
O       1.170254   -0.608839    0.080748
H       0.912671    1.737223   -0.225587
H      -0.788804    1.836934   -0.149290
H      -1.997439   -2.590022   -0.004046
H       0.016513   -2.894432    2.031777
H       0.125418   -2.909573   -1.923003
H       2.123587   -2.418101    0.109742
