16

O      -0.174638    1.326351    0.006099
N       0.003956   -0.068202    0.002366
C      -1.115084   -0.669537    0.009203
C      -2.499635   -0.042841    0.020193
C      -3.399006   -1.245784    0.024848
C      -2.715515   -2.400905    0.017939
C      -1.219222   -2.184925    0.007269
C      -3.335751   -3.727498    0.020326
O      -2.714595   -4.767256    0.014076
H       0.733086    1.648505    0.000312
H      -2.642456    0.605611    0.895161
H      -2.655124    0.608247   -0.850655
H      -4.481791   -1.174118    0.032915
H      -0.745856   -2.634940   -0.872679
H      -0.732830   -2.638112    0.878431
H      -4.448693   -3.718846    0.028568
