14

O      -0.050553    0.073219   -0.220133
C       0.002321    1.232921    0.019817
O      -0.995456    2.063035    0.484214
C      -0.105680    3.226862    0.511901
C       1.022979    2.344048   -0.001737
C       2.473071    2.252888    0.345487
C       2.066905    2.628529   -1.065616
C       2.271655    1.714437   -2.156405
N       2.454702    1.002572   -3.048609
H      -0.463477    4.006423   -0.163919
H       0.002202    3.608817    1.529468
H       2.907068    3.035377    0.957521
H       2.874609    1.257774    0.499798
H       2.176961    3.673743   -1.338750
