16

N      -0.032905    1.332045   -0.079606
C      -0.056116   -0.023401    0.001732
N      -1.094499   -0.809162   -0.086762
C      -0.523241   -2.043722    0.133757
N       0.770508   -2.032442    0.338952
O       1.095618   -0.649678    0.249827
C      -1.325096   -3.278801    0.133097
C      -0.730906   -4.572880   -0.392446
C      -0.973042   -4.414993    1.076165
H       0.853780    1.756703   -0.299683
H      -0.839612    1.747439   -0.516884
H      -2.374642   -3.094810   -0.059117
H      -1.384392   -5.223883   -0.962267
H       0.292636   -4.524270   -0.744989
H      -0.113439   -4.259131    1.717286
H      -1.795487   -4.955629    1.530915
