19

C      -0.309764    1.565722   -0.043687
C       0.065110    0.114494    0.060324
C      -1.009299   -0.986641    0.187791
O      -0.279232   -1.632245    1.262278
C       0.761552   -0.640345    1.220682
C       1.843087   -0.927833    0.196719
C       3.328989   -0.829795    0.319551
C       2.655716   -2.153943   -0.021109
O       1.121668   -0.269235   -0.857759
H       0.570145    2.202304    0.082719
H      -0.738001    1.773303   -1.030851
H      -1.052371    1.832674    0.714209
H      -1.994973   -0.646059    0.529447
H      -1.116269   -1.622741   -0.697065
H       1.033365   -0.258831    2.206999
H       3.854307   -0.317877   -0.479600
H       3.760543   -0.700194    1.307114
H       2.615995   -2.936291    0.729199
H       2.745933   -2.505970   -1.043038
