19

C       0.065286    1.573302   -0.183712
C       1.329004    0.770623   -0.038258
C       2.147745    0.804452    1.247122
C       1.389598    0.160815    2.419212
O       0.320845    1.010222    2.862146
C      -0.895465    0.413159    2.409891
C      -0.398801   -0.565620    1.343656
O       0.789019   -1.043116    2.005837
C      -0.020671    0.073741    0.007886
H      -0.212354    2.223508    0.637828
H      -0.183199    1.963881   -1.164811
H       1.912989    0.625522   -0.941090
H       3.068403    0.228020    1.102626
H       2.440903    1.823705    1.521588
H       2.050731   -0.053950    3.264641
H      -1.389557   -0.122274    3.230738
H      -1.563930    1.189156    2.029624
H      -1.058857   -1.422422    1.203332
H      -0.301900   -0.507179   -0.863858
