19

O      -0.580929    0.384268   -0.561543
C      -0.313592    1.506554   -0.254282
O       0.952495    1.945665   -0.121664
C       1.174558    3.302468    0.254048
C       2.074615    3.525286    1.491938
C       2.835415    4.629759    0.696478
C       2.194189    4.075585   -0.584151
C       2.926621    3.498353   -1.759467
C       2.020230    4.694699   -1.936727
H      -1.064323    2.295161   -0.049207
H       0.210300    3.820953    0.331629
H       1.581176    3.809970    2.423137
H       2.697642    2.645498    1.665921
H       2.492347    5.638791    0.944127
H       3.925922    4.607215    0.750869
H       3.999244    3.654627   -1.812695
H       2.589456    2.539450   -2.137296
H       1.075017    4.546570   -2.450498
H       2.475560    5.663809   -2.113909
