21

C       0.715251    1.559167   -0.263872
C       0.156154    0.169569    0.073705
C       0.350470   -0.887518   -1.059589
N       1.327590   -1.908516   -0.633886
C       2.637974   -1.361787   -0.258042
C       1.626058   -1.658216    0.788490
C       0.789312   -0.517277    1.299044
C       1.072311    0.183283    2.575676
N      -0.002156   -0.824728    2.506087
H       1.795447    1.543182   -0.434997
H       0.242527    1.947876   -1.172276
H       0.519686    2.276460    0.539619
H      -0.917878    0.289499    0.259005
H      -0.591738   -1.408768   -1.255846
H       0.673736   -0.429919   -2.000614
H       3.470407   -2.043278   -0.409961
H       2.863681   -0.323035   -0.483523
H       1.728608   -2.519330    1.441893
H       1.931957   -0.104828    3.175469
H       0.800680    1.232309    2.661272
H      -0.904766   -0.357304    2.455642
