15

C      -0.387100    1.343393   -0.090870
N       0.002324   -0.046014    0.016018
C       0.583486   -0.847322   -0.896210
N       0.759297   -2.058049   -0.400389
C       0.246834   -1.945394    0.859067
C       0.265505   -3.115696    1.798453
O       0.107077   -4.334363    1.103389
N      -0.227089   -0.746194    1.156673
H       0.128655    1.937505    0.667392
H      -0.117188    1.708660   -1.083260
H      -1.465792    1.443657    0.052066
H       0.852782   -0.510905   -1.886431
H       1.210335   -3.102369    2.368677
H      -0.549394   -3.021137    2.522268
H       0.560526   -4.222998    0.258039
