17

C      -0.080981    1.506191    0.033150
C       0.140572    0.021655   -0.040018
O      -0.531620   -0.785214    0.946523
C       0.903898   -0.789980    0.925560
C       1.507538   -1.972967    0.188495
N       1.097853   -1.882217   -1.233416
C      -0.336949   -2.025064   -1.511480
C       0.261656   -0.670372   -1.384628
H       0.692919    2.041611   -0.526735
H      -1.052458    1.774850   -0.395539
H      -0.061598    1.845938    1.071232
H       1.386999   -0.379075    1.810952
H       2.601536   -1.913435    0.232302
H       1.206106   -2.933242    0.619741
H      -0.560775   -2.427476   -2.496124
H      -0.997444   -2.341971   -0.711101
H       0.446648   -0.044621   -2.253680
