15

C      -0.053714    1.556183    0.037751
C      -0.011458    0.055863    0.021994
C      -0.030408   -0.697265   -1.176220
N      -0.126822   -0.067494   -2.399115
N      -0.010202   -2.036427   -1.218347
N       0.015483   -2.735125   -0.090573
C       0.038849   -2.107237    1.076720
C       0.028850   -0.713945    1.160120
F       0.050446   -0.135642    2.362006
H       0.852195    1.987717   -0.407418
H      -0.908279    1.925759   -0.539905
H      -0.133274    1.932980    1.057987
H       0.298009    0.842006   -2.487014
H       0.049869   -0.687382   -3.177093
H       0.067013   -2.718190    1.972095
