13

O       0.093917   -0.075251   -0.002430
C       0.008324    1.133811    0.009393
C       1.186439    2.002362    0.003689
C       1.372649    3.390112    0.013955
C       0.362194    4.448469    0.034972
O       0.627067    5.629266    0.041531
C       2.777685    3.552005   -0.000660
N       3.407880    2.380574   -0.018283
N       2.428495    1.466742   -0.015257
H      -0.969740    1.651105    0.025113
H      -0.693461    4.100902    0.043033
H       3.334081    4.476243    0.001236
H       2.640152    0.479902   -0.026464
