13

N      -0.072130    1.314509    0.047240
C       0.013457    0.044250    0.000397
N       1.092476   -0.795546   -0.159268
C       0.814766   -2.211402    0.077866
C      -0.713361   -2.302325   -0.069148
C      -1.207169   -0.865604    0.101620
O      -2.337729   -0.509676    0.282116
H       0.846969    1.757603   -0.025814
H       2.032143   -0.440991   -0.078613
H       1.346448   -2.835841   -0.646438
H       1.131869   -2.523265    1.082590
H      -0.997652   -2.635894   -1.073367
H      -1.189985   -2.972388    0.647871
