15

O       0.011634   -0.000424   -0.391066
C       0.060094    1.121218    0.046552
C       1.275873    1.974168    0.004776
C       1.090378    3.486510   -0.070024
C       1.551272    2.880349    1.200506
O       0.794088    2.856339    2.407861
C       1.980779    2.958956    3.237161
C       2.842386    3.013073    1.962714
O       3.998896    3.109764    1.690803
H      -0.824068    1.602769    0.518528
H       2.140457    1.531126   -0.478150
H       1.799963    4.057246   -0.658380
H       0.067790    3.852139   -0.080503
H       1.985276    3.866396    3.850094
H       2.132955    2.075530    3.866631
