16

C       0.080736    1.500696    0.057633
C       0.011259    0.005416    0.034101
C      -0.096828   -0.707054   -1.110122
N      -0.158608   -2.077655   -1.102832
N      -0.118824   -2.827972    0.012430
C      -0.015496   -2.194341    1.138942
C       0.059856   -0.742478    1.281661
N       0.163305   -0.093135    2.399382
O       0.195696   -0.981661    3.498632
H       1.005646    1.834235    0.541031
H       0.032952    1.920912   -0.950491
H      -0.738471    1.913442    0.656730
H      -0.140853   -0.247182   -2.090746
H      -0.238850   -2.603816   -1.955491
H       0.015090   -2.813238    2.025337
H       0.272377   -0.373601    4.240018
