16

C       0.249465    0.963245   -0.260585
O      -0.385169   -0.103340    0.432648
C       0.389086   -0.684169    1.389952
C       0.073679   -2.055439    1.807541
C       1.366149   -1.881272    0.996366
C       1.350643   -2.337576   -0.426247
O       0.342062   -2.587374   -1.036465
C       2.632313   -1.910652    1.666043
N       3.660769   -1.922699    2.197605
H       1.107442    0.601404   -0.841883
H      -0.495187    1.382739   -0.937797
H       0.591852    1.740978    0.435343
H       0.846966   -0.004961    2.110238
H       0.177697   -2.329528    2.850019
H      -0.706404   -2.555359    1.243139
H       2.354967   -2.413061   -0.890883
