19

C       0.043143    1.657279    0.045479
C       0.088338    0.143391    0.049377
C       1.272428   -0.712907   -0.345112
C       2.678399   -0.125111   -0.361007
C       2.924239    0.476156    1.049545
C       1.852503   -0.143725    1.986957
C       0.768991   -0.724252    1.086124
H       0.974326    2.119756    0.376445
H      -0.168683    2.033723   -0.961899
H      -0.754244    2.020547    0.703963
H      -0.854690   -0.285563   -0.285727
H       1.080741   -1.549860   -1.009114
H       3.390664   -0.933464   -0.561751
H       2.824545    0.621000   -1.150513
H       3.937374    0.265611    1.404245
H       2.834352    1.565157    1.026564
H       2.286272   -0.958354    2.577955
H       1.468530    0.590439    2.704542
H       0.207997   -1.569527    1.472036
