16

O      -0.918449    1.327495   -0.083935
C       0.226518    0.972804   -0.212144
C       1.448735    1.891763   -0.263043
O       2.531471    1.337668   -0.439323
C       1.258081    3.311144   -0.102372
C       2.294270    4.193519   -0.172209
N       1.906025    5.484638   -0.046371
C       0.497530    5.546145    0.380707
C      -0.026856    4.109447    0.095212
H       0.520519   -0.093789   -0.320457
H       3.333243    3.941620   -0.340974
H       2.558298    6.213753    0.191012
H       0.438741    5.790916    1.449525
H      -0.042367    6.318530   -0.173030
H      -0.649843    4.089564   -0.805595
H      -0.651054    3.735394    0.907551
