18

C      -0.030502    1.557753    0.072640
C       1.502406    1.385529    0.002255
C       1.996247    0.817879    1.392542
O       0.842952    0.616383    2.254228
C       0.536843   -0.519217    1.399886
C       2.054195   -0.711971    1.104503
C       2.203204   -0.882816   -0.389825
N       1.256984    0.147482   -0.840279
C       0.006869    0.015328    0.009780
H      -0.451162    2.021773    0.961281
H      -0.431138    1.990002   -0.843940
H       2.151230    2.145390   -0.437985
H       2.801855    1.367371    1.881057
H      -0.078193   -1.271309    1.895549
H       2.618849   -1.324430    1.804441
H       3.210060   -0.666913   -0.763512
H       1.898197   -1.868834   -0.756913
H      -0.809125   -0.566868   -0.423089
