12

O       0.196909    1.346004   -0.002547
C       0.027186    0.004874    0.009818
C      -1.065557   -0.778243    0.024951
O      -2.380718   -0.431487    0.083828
N      -0.619559   -2.118603   -0.057068
C       0.771248   -2.163957   -0.020029
O       1.495117   -3.135753    0.039509
N       1.145861   -0.819889   -0.059413
H      -0.666436    1.750663    0.141013
H      -2.784661   -0.544457   -0.787275
H      -1.160829   -2.910904    0.247505
H       2.096846   -0.521415    0.072934
