21

C      -0.008354    1.512304   -0.050118
C       0.172737    0.010837    0.026325
O       1.254297   -0.493161   -0.817342
C       1.787514   -1.238906    0.291308
C       2.312523   -2.600862   -0.031183
O       3.454686   -2.538165   -0.873228
C       2.252450   -0.288790    1.351683
C       0.779775   -0.663350    1.264886
C      -0.008184   -1.257985    2.395565
H       0.888131    2.043665    0.279432
H      -0.226525    1.814474   -1.079447
H      -0.849717    1.822591    0.579065
H      -0.759312   -0.497223   -0.259697
H       2.626774   -3.109129    0.885994
H       1.513763   -3.200993   -0.494555
H       3.197438   -2.027390   -1.649083
H       2.772528   -0.743467    2.190038
H       2.612920    0.696806    1.071895
H      -0.397324   -0.477434    3.060644
H      -0.861990   -1.838796    2.028336
H       0.611417   -1.923414    3.004938
