15

C      -0.065956    1.377843    0.101785
O       0.003940   -0.036345   -0.001544
C       0.618694   -0.559688   -1.079275
C       1.206270    0.150241   -2.125932
C       1.802488   -0.560270   -3.168330
N       1.854425   -1.888139   -3.241735
C       1.290003   -2.569048   -2.236343
C       0.675646   -1.959153   -1.160560
F       0.130363   -2.690727   -0.188237
H       0.934187    1.825605    0.144493
H      -0.621741    1.813132   -0.737396
H      -0.595178    1.583879    1.032606
H       1.206461    1.232277   -2.141134
H       2.262678   -0.013737   -3.987937
H       1.320928   -3.654846   -2.275994
