20

C       0.274867    1.727857    1.289403
C       0.011570    0.652020    0.235716
C       0.825064   -0.623318    0.500037
O       0.496351   -1.208916    1.745303
N      -1.406815    0.260880    0.290505
C      -2.391313    1.147230   -0.296804
C      -2.086614   -0.169326   -0.950134
C      -1.410441   -0.204319   -2.218326
C      -0.855701   -0.276484   -3.283564
H       1.317387    2.056054    1.237426
H      -0.363390    2.602557    1.133205
H       0.089773    1.331482    2.290401
H       0.281245    1.035172   -0.760701
H       0.663931   -1.327997   -0.331008
H       1.893332   -0.383439    0.528746
H      -0.469252   -1.212530    1.778687
H      -3.320607    1.272809    0.252565
H      -2.036329    2.035252   -0.816437
H      -2.783469   -0.989227   -0.792689
H      -0.369256   -0.331619   -4.226062
