18

C      -0.301446    1.515709   -0.029571
C       0.047223    0.031477    0.013349
C       0.906687   -0.468269   -1.170143
C       1.397416   -1.856978   -0.737436
C       1.453602   -1.812566    0.790148
O       1.849640   -2.669032    1.526362
C       0.849155   -0.443743    1.256103
C       1.941424    0.460231    1.604864
N       2.815442    1.175851    1.853304
H       0.600870    2.134322   -0.009401
H      -0.853432    1.749273   -0.945462
H      -0.926783    1.805291    0.820741
H      -0.883344   -0.551911    0.024124
H       0.340912   -0.485014   -2.104607
H       1.756266    0.209430   -1.313406
H       0.687369   -2.646484   -1.013811
H       2.368913   -2.152060   -1.141663
H       0.231385   -0.605559    2.143551
