20

C      -0.482175    0.821138    0.464426
C       0.113866   -0.536050    0.085544
N       0.785823   -0.533127   -1.227339
C       2.148391   -0.278119   -1.337409
C       2.909050   -0.065572   -0.041080
N       2.735625   -0.239356   -2.480779
C      -0.120760   -0.745430   -2.323063
N       0.423763   -0.788409   -3.554482
O      -1.310667   -0.885704   -2.094068
H       0.280649    1.605271    0.514239
H      -1.233826    1.113292   -0.271826
H      -0.966490    0.756969    1.444286
H       0.817876   -0.880148    0.842457
H      -0.686531   -1.271616    0.020321
H       2.948263   -0.984860    0.552000
H       3.933660    0.229029   -0.273862
H       2.462270    0.712042    0.583192
H       3.725377   -0.044668   -2.372357
H       1.419283   -0.600612   -3.666369
H      -0.223909   -0.889144   -4.316203
