19

O       0.110162    1.350951    0.131699
C       0.087741   -0.056771   -0.004725
C       0.192359   -0.438391   -1.524690
C      -1.405953   -0.417541   -1.522678
C      -1.291260   -0.755185   -0.008227
C      -1.424149   -0.260503    1.491889
C       0.144224   -0.647828    1.469172
C       0.055323   -2.139414    1.195958
C      -0.873086   -2.209504    0.238181
H       0.011972    1.755705   -0.734867
H       0.723678    0.268487   -2.171758
H       0.568435   -1.443895   -1.710477
H      -1.798866    0.580797   -1.730167
H      -1.915958   -1.138179   -2.167861
H      -1.605936    0.806853    1.607203
H      -2.050172   -0.857718    2.158958
H       0.835494   -0.270540    2.223923
H       0.622759   -2.919528    1.682708
H      -1.260769   -3.065467   -0.299174
