15

N       0.340860    1.371320   -0.041675
C      -0.011435   -0.022490    0.140237
C      -1.503269   -0.344267   -0.074883
O      -2.321656    0.506549   -0.313715
N      -1.781846   -1.707288    0.028289
C      -3.055671   -2.314459    0.050085
N      -2.957376   -3.697677   -0.011468
O      -4.096252   -1.721797    0.167862
H       0.085677    1.652668   -0.984776
H      -0.255590    1.935497    0.558398
H       0.587332   -0.642791   -0.540391
H       0.261490   -0.338276    1.156645
H      -0.993863   -2.311211    0.210339
H      -2.216392   -4.103169   -0.563422
H      -3.854391   -4.144685   -0.130054
