14

O      -0.173715   -0.037774    0.174351
C      -0.062214    1.158334    0.106825
N      -1.090783    2.073617   -0.127891
C      -0.686331    3.418895    0.121487
C       0.643965    3.436492    0.229102
N       1.671752    4.190731    0.803619
C       2.535855    3.219442    1.343504
N       2.334276    1.998276    1.011852
C       1.206567    2.053430    0.072541
H      -2.052915    1.775464   -0.092966
H      -1.428853    4.187807    0.269177
H       1.491319    5.044366    1.309746
H       3.348223    3.544527    1.985199
H       1.601852    1.876656   -0.943147
