23

C       0.152300    1.509109    0.257840
C      -0.006138   -0.013159    0.250368
C      -1.393643   -0.467237   -0.225764
C      -1.522194   -1.976281   -0.236958
C      -2.082091   -2.713729    0.951972
O      -2.581748   -1.961027    2.016817
C      -2.858003   -2.707433   -0.349040
C      -4.190825   -1.989365   -0.371045
O      -5.060871   -2.427826    0.687850
H       1.148773    1.805409    0.600308
H       0.006598    1.928624   -0.744227
H      -0.581284    1.979194    0.922099
H       0.763862   -0.459443   -0.393195
H       0.167478   -0.409717    1.257922
H      -2.147172   -0.038837    0.441836
H      -1.584567   -0.065380   -1.230424
H      -0.703615   -2.481422   -0.745450
H      -1.599063   -3.643704    1.251574
H      -3.538133   -2.112347    2.036021
H      -2.839422   -3.632738   -0.920513
H      -4.078247   -0.916327   -0.209633
H      -4.683260   -2.121511   -1.343979
H      -5.183732   -3.377847    0.587309
