15

O       0.137408    0.045231    0.632303
C       0.121518    1.234012    0.387613
N       1.157870    1.915512   -0.148887
C       2.522078    1.469777   -0.419488
C       2.873413    2.948053   -0.813601
C       1.419654    3.338453   -0.365889
C       3.970070    3.580541   -0.114282
C       4.875704    4.102758    0.479038
H      -0.756620    1.888400    0.567709
H       3.045633    1.100810    0.467293
H       2.605333    0.732860   -1.222847
H       2.998179    3.054888   -1.893819
H       0.804275    3.806686   -1.140420
H       1.387939    3.945500    0.544555
H       5.679568    4.564033    0.997655
