20

C      -0.008355    1.488349   -0.019746
C       0.005492   -0.022435    0.003631
C      -0.871897   -0.731903    1.018167
O      -1.684973   -1.828072    0.705842
C       0.631563   -0.835640    1.135641
C       1.325926   -2.034842    0.481987
C       1.219470   -1.794891   -1.028508
C      -0.092569   -1.903163   -1.715354
N       0.418303   -0.584146   -1.284938
H       0.956018    1.870294   -0.368830
H      -0.780424    1.856930   -0.703308
H      -0.206146    1.902118    0.973933
H      -1.340574   -0.047768    1.728247
H      -1.687940   -2.416190    1.469218
H       1.116596   -0.364142    1.985189
H       2.375625   -2.062655    0.786685
H       0.881427   -2.992066    0.778670
H       2.131950   -1.895961   -1.612409
H      -0.110240   -2.023987   -2.795981
H      -0.923962   -2.339703   -1.182790
