17

C      -0.809468    0.144152    0.567454
C       0.517673    0.110252   -0.154784
O       1.546389    0.519440    0.329852
C       0.516052   -0.432138   -1.598750
C       1.814957   -1.158903   -1.990295
C       1.446641   -2.629347   -1.773308
C      -0.073651   -2.656044   -1.880696
O      -0.803479   -3.592439   -2.008010
O      -0.551383   -1.374293   -1.792529
H      -1.572856    0.626373   -0.052157
H      -1.165396   -0.875357    0.747197
H      -0.695795    0.672611    1.514198
H       0.308063    0.425063   -2.250339
H       2.050777   -0.968678   -3.040024
H       2.644374   -0.806058   -1.377740
H       1.883892   -3.324911   -2.490266
H       1.715741   -2.981527   -0.770897
