15

C       0.106677    1.523269    0.137907
C      -0.061496    0.018224   -0.096036
N       0.656862   -0.484327   -1.255056
C       2.107187   -0.549502   -1.211448
C      -0.003547   -0.922073   -2.365139
O       0.513285   -1.356251   -3.373523
H       1.151518    1.789581    0.321429
H      -0.243178    2.092286   -0.728639
H      -0.473499    1.834121    1.012247
H       0.268053   -0.535265    0.794127
H      -1.121889   -0.215396   -0.238435
H       2.438724   -1.117142   -0.333499
H       2.442532   -1.050109   -2.119841
H       2.557371    0.448684   -1.168054
H      -1.101927   -0.838591   -2.243242
