17

C      -0.022797    1.523554   -0.092333
C       0.057076   -0.004108   -0.094975
N       0.860518   -0.534180   -1.203980
C       1.782476   -1.253928   -0.686797
C       2.807283   -1.964170   -1.524382
O       2.611366   -1.707450   -2.885217
N       1.763062   -1.333111    0.699655
C       0.711109   -0.555757    1.185736
O       0.423451   -0.377079    2.341266
H       0.978285    1.963084   -0.060629
H      -0.524840    1.876055   -0.996061
H      -0.579334    1.860601    0.785866
H      -0.957734   -0.417367   -0.162053
H       3.812252   -1.641173   -1.204997
H       2.746666   -3.045253   -1.314324
H       1.832985   -1.130305   -2.935999
H       2.420744   -1.820270    1.287442
