18

O      -0.280939    1.460234   -0.023536
C      -0.058996    0.086975    0.005840
C      -0.206671   -0.754900    1.263805
C      -1.414455   -0.243888    2.031152
O      -2.251317   -0.282115    0.830940
C      -1.180689   -0.895653    0.085483
C      -1.554995   -1.971352   -0.861234
C      -2.682645   -2.883847   -0.547248
N      -2.826986   -1.860808   -1.599145
H      -1.236184    1.581337    0.060846
H       0.775047   -0.208840   -0.625262
H       0.555972   -1.423708    1.639939
H      -1.801137   -0.942405    2.778763
H      -1.352757    0.765702    2.450657
H      -0.725092   -2.340451   -1.459877
H      -2.662234   -3.909318   -0.904646
H      -3.203492   -2.727941    0.392588
H      -3.357068   -1.077816   -1.220564
