21

C      -0.724596    1.311519    0.181613
C      -0.172182   -0.095008    0.118797
O       0.878693   -0.195177   -0.909234
C       1.838484   -0.496895    0.022350
N       3.074787   -0.668142   -0.112661
C       0.865323   -0.560048    1.190858
N       1.106377    0.298231    2.330473
C       0.040335    0.166071    3.315284
C       2.411185    0.062384    2.947320
H       0.038867    2.011972    0.525909
H      -1.067361    1.610929   -0.813333
H      -1.579673    1.365185    0.862055
H      -0.951229   -0.831390   -0.098186
H       3.358970   -0.540846   -1.085950
H       0.690326   -1.613094    1.483820
H      -0.008200   -0.848009    3.756705
H       0.203165    0.880995    4.127165
H      -0.930674    0.384756    2.863186
H       3.199853    0.144026    2.199545
H       2.574316    0.813100    3.726745
H       2.483126   -0.937048    3.415774
