15

C       0.062038    1.519886    0.121821
C      -0.086921    0.001419   -0.081346
C       0.703367   -0.516804   -1.240748
N       0.166852   -0.838000   -2.385294
O       1.182138   -1.260323   -3.188968
N       2.396283   -1.193794   -2.536575
C       2.117394   -0.747890   -1.339661
N       3.057529   -0.624494   -0.334219
H       1.104659    1.810382    0.292304
H      -0.292083    2.064629   -0.757640
H      -0.518742    1.849125    0.987990
H       0.229773   -0.526954    0.826082
H      -1.138607   -0.246857   -0.246898
H       4.009309   -0.691502   -0.668928
H       2.927610    0.175368    0.268133
