15

N       0.036789   -1.147703   -0.126063
C       0.042309    0.007560   -0.042190
C       0.035668    1.423072    0.093648
N       0.257871    2.324691   -1.066352
C       1.183445    2.406391    0.065198
C       0.520367    3.268906    1.164007
C      -0.566319    4.275339    0.716617
O      -1.596446    3.248314    0.788984
C      -0.654984    2.270265    1.216225
H       0.696959    1.772178   -1.802313
H       2.239428    2.198942   -0.053266
H       1.133910    3.496292    2.032284
H      -0.763972    5.073900    1.439443
H      -0.467129    4.683312   -0.291698
H      -0.955932    1.698650    2.096443
