19

C       0.071206    1.612154    0.079506
C       0.013538    0.079559   -0.050918
C      -1.383798   -0.456649   -0.082565
C      -2.126030   -0.897875   -1.119447
N      -1.838071   -0.911492   -2.466142
C      -3.493052   -1.342279   -0.643484
N      -3.455047   -1.008577    0.762280
C      -2.186855   -0.587553    1.153017
O      -1.837466   -0.380044    2.299175
H       1.107436    1.962396    0.125813
H      -0.417992    2.101036   -0.769157
H      -0.437508    1.928708    0.993954
H       0.566604   -0.238034   -0.945226
H       0.528409   -0.364061    0.809328
H      -0.863761   -0.802743   -2.707289
H      -2.293685   -1.626941   -3.013753
H      -4.289521   -0.809437   -1.181225
H      -3.641155   -2.419424   -0.818936
H      -4.057931   -1.450457    1.436481
