19

N      -0.158736   -1.122361   -0.476916
C      -0.075144    0.005827   -0.240351
C       0.001595    1.444084    0.042943
C      -0.751539    1.808059    1.352302
C       0.116518    1.638668    2.602996
C       1.310899    2.602269    2.564143
C       2.093782    2.480104    1.272691
N       2.403058    1.112793    0.840492
C       1.464216    1.912682    0.045012
H      -0.509024    1.946607   -0.787180
H      -1.063036    2.856714    1.271530
H      -1.663447    1.208740    1.420340
H      -0.485336    1.833498    3.496099
H       0.474844    0.606785    2.671468
H       0.952889    3.636429    2.657822
H       1.980258    2.420429    3.413041
H       2.855651    3.241814    1.114388
H       3.307414    1.057274    0.382496
H       1.814680    2.283155   -0.914904
