14

N       0.021237    1.343322    0.237652
C      -0.041661   -0.027738    0.053061
C      -1.104512   -0.862578   -0.080026
O      -0.591861   -2.161289   -0.166308
C       0.731157   -1.985064   -0.068844
O       1.534929   -3.051509   -0.156422
C       1.030068   -4.300444    0.111831
N       1.759897   -5.292922   -0.129388
N       1.138537   -0.768326    0.060914
H       0.918808    1.720379   -0.033990
H      -0.741510    1.860512   -0.174791
H      -2.173138   -0.766359   -0.120009
H       0.021824   -4.279066    0.528182
H       1.280530   -6.150782    0.137256
