11

C       0.009483    1.402107   -0.036619
O       0.017666   -0.034889   -0.027615
C       0.594991   -0.643096   -1.039176
N       0.694219   -1.932129   -1.194531
C       1.367733   -1.994991   -2.384283
N       1.673602   -0.855634   -2.943901
O       1.142787    0.083586   -2.019358
H       1.030172    1.793229   -0.034033
H      -0.523800    1.778876   -0.913225
H      -0.509340    1.692661    0.875671
H       1.642950   -2.927608   -2.856609
