23

C       0.022756    1.384289   -0.084149
O      -0.016271   -0.012514    0.089186
C      -1.311846   -0.593213    0.009751
C      -1.809990   -0.661785   -1.435903
C      -1.214149   -1.980073    0.723125
C      -0.203362   -2.905696    0.006631
C      -0.763557   -1.760837    2.187072
C      -2.541641   -2.603406    0.730967
C      -3.627144   -3.120854    0.759920
H       1.048500    1.703830    0.117240
H      -0.242045    1.692377   -1.105759
H      -0.652298    1.899414    0.617115
H      -2.015796    0.018388    0.598271
H      -1.967075    0.342024   -1.840401
H      -1.082372   -1.172058   -2.072889
H      -2.761291   -1.196386   -1.487462
H       0.766122   -2.406984   -0.062405
H      -0.084142   -3.836026    0.568323
H      -0.538256   -3.164770   -1.000456
H      -1.472018   -1.119871    2.720473
H      -0.709670   -2.716718    2.714782
H       0.218778   -1.285476    2.204834
H      -4.584520   -3.579665    0.782868
