23

C      -1.219883    2.518698   -1.116662
C      -0.811221    1.179193   -0.477315
C      -1.901480    0.210593   -0.421450
C      -2.814004   -0.576329   -0.387540
C      -3.913889   -1.549227   -0.332088
C      -3.393445   -2.992741   -0.260985
C      -4.515195   -4.031235   -0.319210
O      -4.751599   -1.350346    0.799873
C      -5.479095   -0.142609    0.770995
H      -0.370014    3.207457   -1.136746
H      -1.567569    2.369604   -2.142497
H      -2.029965    2.987554   -0.551382
H       0.027212    0.745849   -1.037840
H      -0.432125    1.356760    0.537297
H      -4.522221   -1.439322   -1.248588
H      -2.688928   -3.137640   -1.086784
H      -2.822064   -3.095839    0.667837
H      -4.110341   -5.045067   -0.246195
H      -5.222229   -3.882344    0.500005
H      -5.070882   -3.961829   -1.261453
H      -6.138048   -0.087594   -0.110246
H      -6.094164   -0.118313    1.673765
H      -4.815863    0.733191    0.763089
