22

C       1.394733   -4.000665    1.447732
C       0.979774   -2.672837    0.850597
N       0.593927   -1.504670    1.649472
C       0.608974   -1.543584    3.103365
C       1.836606   -1.438582    0.877610
C       3.200978   -1.419890    1.544001
C       1.781554   -0.507244   -0.305025
C       0.592159    0.279082   -0.641283
O       1.718987    0.892661   -0.005482
H       2.084212   -3.906455    2.287891
H       0.515946   -4.554217    1.796962
H       1.885165   -4.613194    0.683653
H       0.340668   -2.793852   -0.025769
H       1.389240   -2.166775    3.561276
H       0.730919   -0.522766    3.478233
H      -0.360729   -1.913997    3.451736
H       3.976001   -1.690604    0.818412
H       3.423742   -0.408990    1.900700
H       3.285983   -2.105406    2.387269
H       2.483444   -0.752084   -1.105986
H       0.421846    0.579110   -1.674835
H      -0.288256    0.172659   -0.013802
