23

C       1.853081   -0.185473   -0.911975
C       0.533460    0.054628   -0.222868
O      -0.028284   -1.011787    0.558114
C       0.332622    0.200540    1.229098
C       1.390882    0.149215    2.311130
C       2.053395    1.522818    2.449773
C       0.865572   -0.394624    3.683296
C       2.153704   -1.247524    3.815498
C       2.413130   -1.032202    2.302297
H       2.596156   -0.625068   -0.246851
H       1.714379   -0.859467   -1.764326
H       2.248471    0.759990   -1.299735
H      -0.207647    0.545137   -0.859331
H      -0.534526    0.797142    1.531638
H       1.306585    2.305040    2.630835
H       2.756951    1.538451    3.288538
H       2.606433    1.790149    1.542770
H       0.662957    0.347195    4.461142
H      -0.023799   -1.017151    3.551013
H       2.909047   -0.766968    4.442815
H       2.032770   -2.278218    4.155430
H       2.037081   -1.862978    1.702432
H       3.436458   -0.797836    1.994911
