19

C      -0.067328    1.627310    0.027931
C      -0.012894    0.101676    0.018319
C       0.690319   -0.596015   -1.185894
C       2.043585   -0.270738   -0.453267
C       1.156894   -0.583727    0.789655
N       1.023780   -2.071356    0.612819
C      -0.307220   -2.579547    0.234874
C       0.610363   -2.088202   -0.825259
H       0.885106    2.109398   -0.202979
H      -0.802282    1.984611   -0.702015
H      -0.386437    1.986150    1.012941
H      -1.019231   -0.249630    0.252389
H       0.495241   -0.312191   -2.220522
H       2.880822   -0.951097   -0.623683
H       2.369980    0.764542   -0.539346
H       1.433292   -0.309476    1.808092
H      -0.387415   -3.656031    0.364389
H      -1.212311   -2.047392    0.501864
H       1.115581   -2.798199   -1.476009
