16

O       0.009952    1.391123   -0.096606
C      -0.049681    0.008598   -0.024580
C      -0.429598   -0.739338    1.242687
C      -1.182076    0.055476    2.254770
C      -2.339464    0.491883    1.732301
N      -2.519351    0.022200    0.426019
C      -3.628554    0.266799   -0.342987
O      -4.575165    0.931326    0.013704
C      -1.362206   -0.738617    0.011712
H      -0.366281    1.748424    0.718767
H       0.727514   -0.452581   -0.625571
H       0.150614   -1.604363    1.544778
H      -0.840727    0.245119    3.261580
H      -3.110708    1.119034    2.153044
H      -3.556164   -0.221132   -1.332556
H      -1.551815   -1.599380   -0.619075
