16

O       0.052487   -0.001646    0.121660
C       0.036209    1.197169   -0.010095
N      -1.091504    2.007048   -0.074572
C      -0.888611    3.461552   -0.257036
C       0.544637    3.444961   -0.808600
C       1.943127    3.818743   -0.221497
C       1.598016    3.139203    1.107889
C       1.132857    2.242719   -0.082469
O       2.436792    2.484321   -0.729709
H      -1.994515    1.604891    0.123583
H      -1.616505    3.861242   -0.968770
H      -1.001669    4.008020    0.686319
H       0.570113    3.328140   -1.893340
H       2.588963    4.670638   -0.436633
H       2.447874    2.741829    1.660839
H       0.844612    3.593506    1.753471
