16

C      -0.003873    1.402823    0.063955
N       0.012289   -0.050554    0.036304
N      -0.027278   -0.639562   -1.161445
N      -0.016185   -1.906298   -1.244346
C       0.038264   -2.696247   -0.070443
N       0.052426   -3.974800   -0.104076
C       0.077671   -1.974400    1.202881
C       0.134188   -2.729090    2.487663
N       0.064222   -0.678946    1.234524
H       0.901022    1.777011    0.549894
H      -0.047540    1.748855   -0.967371
H      -0.877373    1.755921    0.618286
H       0.018975   -4.280678   -1.080208
H       1.016188   -3.377747    2.498664
H       0.158406   -2.042326    3.334812
H      -0.729946   -3.397071    2.564235
