17

N      -0.013811    1.408512    0.148004
C       0.014921    0.002094    0.045736
C      -1.082795   -0.847010    0.029343
N      -0.596302   -2.133087    0.011181
C      -1.123607   -3.484555   -0.021549
C       0.150954   -4.307540   -0.043533
C       1.223098   -3.494223   -0.027362
C       0.776554   -2.115906    0.006845
C       1.195594   -0.797963    0.030930
H       0.747851    1.838994   -0.361772
H      -0.884507    1.799952   -0.189042
H      -2.138796   -0.630389    0.038148
H      -1.742134   -3.700392    0.859848
H      -1.745267   -3.657435   -0.910239
H       0.146142   -5.387589   -0.066245
H       2.260424   -3.799154   -0.036394
H       2.213502   -0.439648    0.046127
