18

C      -0.026500    1.402658    0.038997
N      -0.030769   -0.035494   -0.161481
C       1.191332   -0.751435    0.157126
C      -1.231538   -0.676320   -0.077008
N      -2.416717   -0.128168   -0.043546
C      -3.285698   -1.212804   -0.034323
N      -4.656996   -0.982143   -0.073497
C      -2.581294   -2.370267   -0.044678
O      -1.224930   -2.020421   -0.069385
H       0.838633    1.832395   -0.474968
H      -0.941613    1.824191   -0.375978
H       0.029786    1.675915    1.103905
H       1.402275   -0.765432    1.238055
H       1.122310   -1.780045   -0.195481
H       2.029874   -0.263008   -0.347979
H      -4.887014   -0.077165    0.315042
H      -5.208466   -1.710959    0.357326
H      -2.804934   -3.420318   -0.036815
