19

C      -0.055101    1.535836    0.077832
C       1.442049    1.946057   -0.066821
C       2.201447    0.631214   -0.065030
C       3.510758    0.369583   -0.108976
C       3.991162   -1.059717   -0.024753
O       3.029646   -1.945738    0.524316
C       1.752987   -1.854038   -0.091632
C       1.222646   -0.452830   -0.006040
C      -0.025777    0.024404    0.072477
H      -0.496764    1.922513    1.005371
H      -0.673285    1.933381   -0.736712
H       1.613291    2.498254   -0.996836
H       1.766106    2.599724    0.748465
H       4.262297    1.149853   -0.191009
H       4.315158   -1.417198   -1.021088
H       4.864175   -1.131707    0.633852
H       1.818972   -2.162862   -1.150620
H       1.110069   -2.573177    0.423588
H      -0.927939   -0.575724    0.125022
