15

C       0.310657    0.264764    0.969379
C      -0.377191    0.704413   -0.301939
O      -0.196276    1.777518   -0.827467
C      -1.331471   -0.281020   -0.966197
C      -0.691247   -1.281351   -1.964779
C      -1.199570   -2.325409   -0.993163
N      -1.173302   -3.574849   -0.943528
O      -1.742645   -1.398031   -0.117321
H       0.998000    1.043682    1.299918
H      -0.435175    0.060359    1.744552
H       0.852993   -0.674395    0.812502
H      -2.198741    0.259862   -1.350769
H      -1.141423   -1.310460   -2.957213
H       0.394935   -1.231114   -2.060056
H      -1.641169   -3.929568   -0.107974
