20

C      -0.140363    1.584948   -0.041802
C      -0.006498    0.061706   -0.009605
C       0.926691   -0.503681   -1.066122
C       2.311987   -0.550386   -0.521142
C       2.294545   -0.289862    0.988479
C       2.492793   -1.727918    1.556701
C       1.150460   -1.967958    0.830171
C       0.748111   -0.506494    1.185187
N       1.503048   -1.802188   -0.622926
H       0.836892    2.068264    0.060669
H      -0.582374    1.923645   -0.984683
H      -0.780735    1.942280    0.771182
H      -1.000141   -0.399400   -0.089321
H       0.720280   -0.410695   -2.127417
H       3.209654   -0.473505   -1.123902
H       2.830678    0.576488    1.373631
H       3.360867   -2.302169    1.223249
H       2.397320   -1.771928    2.644703
H       0.513195   -2.832707    1.012145
H       0.362842   -0.329044    2.187652
