19

O       0.089362    1.382561    0.250401
C       0.068419    0.016289   -0.117889
C      -1.327201   -0.510945   -0.050228
C      -2.418286    0.156493    0.319757
C      -3.674365   -0.694692    0.203081
C      -3.089401   -2.133591    0.050933
C      -1.649820   -1.928603   -0.473453
C      -4.608841   -0.554122    1.314964
C      -5.375261   -0.442603    2.234771
H       1.002956    1.680949    0.242449
H       0.460034   -0.132337   -1.140860
H       0.712808   -0.589850    0.544314
H      -2.443416    1.192340    0.629429
H      -4.209390   -0.414032   -0.718159
H      -3.059900   -2.600332    1.038905
H      -3.702612   -2.765013   -0.595904
H      -1.595493   -2.024688   -1.567720
H      -0.949085   -2.667666   -0.066525
H      -6.051845   -0.339969    3.046375
