20

C      -0.348181    1.651671   -0.182834
C      -0.008460    0.161205   -0.059073
C      -1.272268   -0.664947    0.222215
O      -1.834375   -0.225508    1.451922
C       0.710777   -0.390938   -1.263350
C       0.779087    0.159027   -2.526279
N       1.512029   -0.684557   -3.323790
C       1.921334   -1.771587   -2.595802
C       1.439964   -1.619575   -1.318074
H       0.555586    2.250454   -0.329103
H      -1.015859    1.832710   -1.033734
H      -0.858728    1.997480    0.718116
H       0.639030    0.032644    0.819276
H      -1.979646   -0.534271   -0.613204
H      -1.009341   -1.732521    0.265994
H      -2.650750   -0.710942    1.599317
H       0.378674    1.079180   -2.918920
H       1.731770   -0.518326   -4.289609
H       2.517945   -2.549822   -3.044011
H       1.595931   -2.305713   -0.498686
