13

O       0.441484    0.821109    0.498753
C       0.182880   -0.405075   -0.118270
C      -1.330743   -0.711713   -0.287574
O      -1.143583   -0.818922   -1.735566
C       0.182393   -0.441624   -1.640301
N       1.043540   -0.186990   -2.509351
C      -1.835276   -2.006255    0.308660
O      -2.442923   -2.064537    1.343581
H       1.327188    1.099994    0.238162
H       0.752516   -1.232805    0.328430
H      -1.965879    0.134294   -0.018490
H       0.678823   -0.273863   -3.459144
H      -1.574325   -2.909011   -0.287498
