14

C       0.072540    1.484762   -0.015387
C      -0.071088    0.006288    0.017014
C      -1.124023   -0.837113   -0.130318
C      -0.607761   -2.179048    0.009374
C       0.732107   -2.027962    0.232311
O       1.069636   -0.717207    0.239533
C      -1.328713   -3.392555   -0.067034
C      -1.959098   -4.416338   -0.135286
H       0.760524    1.803419   -0.806454
H      -0.899543    1.946642   -0.199939
H       0.462139    1.870601    0.933294
H      -2.150292   -0.563982   -0.315979
H       1.530489   -2.731950    0.395704
H      -2.508940   -5.322431   -0.194313
