17

O      -0.038937    0.031013    0.141992
C       0.007268    1.229766    0.080277
C      -1.133169    2.251191    0.142924
C      -0.308717    3.564531    0.072798
C      -0.904243    4.513232   -1.008688
O      -0.272114    3.645738   -2.038480
C       0.700757    3.302957   -0.988287
C       1.213307    2.130028   -0.067790
C       0.853295    3.240505    1.080218
H      -1.801232    2.118836   -0.711286
H      -1.715283    2.160153    1.065212
H      -1.989932    4.544450   -1.125767
H      -0.473232    5.519972   -1.041184
H       1.497874    4.054954   -1.040560
H       2.196477    1.670060   -0.149083
H       1.631097    4.000684    1.156535
H       0.597580    2.845407    2.066533
