23

C       0.159440    1.371011   -0.352049
C       0.030401   -0.070606    0.104896
C      -1.067083   -0.816575   -0.632080
O       1.266786   -0.794511    0.240192
C       0.513149   -0.513432    1.440369
C       1.176837    0.459853    2.400941
C      -0.076733   -1.732527    2.143211
C       0.964217   -2.824645    2.381317
O       0.320989   -3.876694    3.087192
H       0.953542    1.909814    0.163398
H       0.375955    1.399161   -1.425573
H      -0.782538    1.907291   -0.191445
H      -0.958697   -0.660197   -1.710931
H      -1.024982   -1.890121   -0.448901
H      -2.056946   -0.446801   -0.342232
H       0.423318    1.012918    2.972585
H       1.800424   -0.082299    3.119546
H       1.817756    1.171729    1.881395
H      -0.486821   -1.422172    3.111065
H      -0.902258   -2.173614    1.581656
H       1.354898   -3.163565    1.411955
H       1.815592   -2.425792    2.955740
H       0.949655   -4.597479    3.185555
