10

O       0.099698    1.300313   -0.051364
C       0.063221   -0.026984   -0.055134
N      -0.036636   -0.708124   -1.176219
O      -0.040328   -2.030563   -0.729763
C       0.057036   -1.990396    0.598150
C       0.079803   -3.248725    1.385545
O       0.014310   -4.344289    0.894818
N       0.125271   -0.782105    1.084772
H       0.174137    1.588890    0.866778
H       0.163651   -3.065570    2.473601
