15

O       0.444511    0.810793    0.733155
C       0.160555   -0.331457   -0.011863
C      -1.348765   -0.582989   -0.233974
C      -1.319131   -1.407973   -1.542558
O      -0.191662   -0.899720   -2.279510
C       0.646236   -0.231244   -1.447531
N       1.666576    0.435018   -1.763854
C      -2.036260   -1.260337    0.855156
N      -2.586808   -1.817805    1.704219
H       1.185212    1.242677    0.280202
H       0.603580   -1.231081    0.447089
H      -1.823108    0.388350   -0.411064
H      -1.172983   -2.473898   -1.340191
H      -2.211786   -1.276805   -2.154942
H       1.846133    0.435185   -2.767296
