16

O       0.067964    1.424890   -0.068398
C       0.031269    0.062892    0.054259
C      -1.258182   -0.748521   -0.030241
N      -0.573463   -1.861700    0.728027
C       0.857284   -1.878854    0.245165
C       0.412940   -0.909724    1.283607
C       1.004844   -0.783963   -0.774531
C       1.412403   -0.671751   -2.168594
O       2.256588   -0.190916   -1.089326
H       0.977530    1.656782   -0.309433
H      -2.065385   -0.362815    0.596303
H      -1.638079   -1.011358   -1.024226
H       1.399862   -2.809063    0.343382
H       0.645762   -0.792901    2.333456
H       1.801366   -1.539940   -2.697291
H       0.986262    0.107157   -2.798836
