18

C      -0.198641    1.523428   -0.006296
C       0.027235    0.020056    0.077377
N       0.874775   -0.440146   -1.133180
H       0.340755   -0.433366   -2.005320
H       1.652843    0.216122   -1.219214
C       1.414242   -1.787072   -0.749363
C       1.608984   -1.650103    0.802917
O       2.332962   -2.438633    1.383835
C       0.835634   -0.525737    1.212829
C       0.743940   -0.003026    2.545345
O       1.342560   -0.386729    3.536302
H       0.745066    2.068255    0.101736
H      -0.683946    1.810231   -0.947367
H      -0.852543    1.836704    0.810229
H      -0.937355   -0.490985   -0.103815
H       0.660261   -2.536963   -1.005857
H       2.344637   -1.997125   -1.276321
H       0.030369    0.858473    2.640233
