19

O      -0.136181    1.429134    0.136049
C      -0.010076    0.019378   -0.047374
C      -1.429523   -0.539065   -0.047412
O      -2.069425   -0.190405    1.176775
C      -2.272627   -0.096076   -1.277438
C      -3.303331   -1.228045   -1.497960
C      -2.595891   -2.461552   -0.976064
O      -1.233949   -2.577746   -1.425830
C      -1.481318   -2.057327   -0.114813
H       0.733248    1.796131    0.317655
H       0.494884   -0.224472   -0.991552
H       0.555269   -0.432739    0.780692
H      -1.823455    0.729517    1.339649
H      -2.739250    0.873237   -1.094977
H      -1.628276   -0.000354   -2.154165
H      -4.206982   -1.064546   -0.900163
H      -3.607537   -1.323073   -2.544680
H      -3.119460   -3.404737   -0.844646
H      -1.115575   -2.646221    0.722298
