20

C      -0.447364    1.494747   -0.060306
C       0.182738    0.099498    0.100796
C       0.782146   -0.436312   -1.166491
C       2.072263   -0.693308   -1.386972
C       2.315612   -1.292426   -2.762421
C       0.969952   -1.013103   -3.499813
C      -0.062935   -0.815488   -2.368227
C       3.479749   -0.737968   -3.455577
N       4.398795   -0.297356   -4.001201
H       0.298340    2.223131   -0.392903
H      -1.260686    1.488883   -0.792396
H      -0.860727    1.841413    0.891377
H       0.953122    0.135813    0.878576
H      -0.588327   -0.598001    0.456917
H       2.877102   -0.552770   -0.675182
H       2.488331   -2.375196   -2.673004
H       1.069785   -0.089659   -4.075671
H       0.709557   -1.811704   -4.197185
H      -0.619817   -1.739578   -2.156569
H      -0.812037   -0.059280   -2.624525
