22

C      -0.066288    1.466380    0.445953
C       0.025946   -0.043036    0.280011
O       1.047591   -0.680884    0.473271
N      -1.127374   -0.650110   -0.102906
C      -2.457468   -0.192354   -0.495962
C      -2.823993   -1.679472   -0.833475
C      -3.897926   -2.268358    0.076806
C      -3.132265   -1.922762   -2.307678
C      -1.360586   -2.055254   -0.413995
H       0.895311    1.834845    0.801870
H      -0.307730    1.951452   -0.506214
H      -0.849244    1.740778    1.160688
H      -3.041610    0.258768    0.316152
H      -2.465965    0.491211   -1.354637
H      -4.878235   -1.825936   -0.133514
H      -3.982472   -3.350969   -0.069149
H      -3.667067   -2.089934    1.132081
H      -2.355966   -1.498633   -2.952794
H      -3.195576   -2.995567   -2.521205
H      -4.089543   -1.469798   -2.589637
H      -0.722410   -2.439305   -1.217862
H      -1.271000   -2.721934    0.450882
