14

N       0.050386    1.405207    0.149820
C       0.029862    0.008960    0.034168
C      -1.077911   -0.806665    0.020332
N      -0.629410   -2.120195   -0.017688
C       0.718237   -2.158365   -0.037358
C       1.186502   -0.848604   -0.001115
C       2.586634   -0.470464    0.020362
O       3.522569   -1.245654   -0.023205
H       0.787780    1.841763   -0.386918
H      -0.834437    1.833702   -0.087426
H      -2.130141   -0.575748    0.039598
H      -1.229766   -2.926236   -0.035765
H       1.274228   -3.080437   -0.071466
H       2.773554    0.626417    0.088330
