13

C       0.021454   -1.210651    0.091812
C       0.057771   -0.010840    0.017376
C       0.061949    1.404385   -0.119080
C      -0.724667    2.271606   -1.124018
C       0.439216    3.321093   -1.065788
C       1.152889    2.410842   -0.059140
O       0.274003    2.224434    1.047573
H      -0.002951   -2.269498    0.169724
H      -0.820544    1.802370   -2.104756
H      -1.705462    2.593396   -0.768882
H       0.968371    3.410301   -2.016984
H       0.191973    4.315401   -0.687881
H       2.213506    2.277505    0.121522
