22

C      -0.151393    1.098722    0.211249
O       0.636108   -0.074134    0.190546
C       0.871206   -0.560155   -1.095609
C       1.467184   -1.927536   -1.178949
C       0.043451   -1.701664   -1.656271
C      -1.123660   -2.308278   -0.894298
C      -2.457513   -1.685892   -1.335743
C      -1.163780   -3.834918   -1.061971
H       0.324364    1.911592   -0.358668
H      -1.156301    0.931969   -0.199998
H      -0.240824    1.407047    1.255650
H       1.222144    0.201581   -1.794017
H       2.254752   -2.119913   -1.898933
H       1.585766   -2.442392   -0.230630
H      -0.091665   -1.685562   -2.736891
H      -0.973684   -2.082067    0.168597
H      -2.656457   -1.900159   -2.392873
H      -3.292706   -2.090910   -0.754724
H      -2.458748   -0.598613   -1.213876
H      -0.233105   -4.298612   -0.721762
H      -1.989708   -4.272229   -0.490587
H      -1.307070   -4.108974   -2.114214
