17

C      -0.364294    1.448289    0.076864
C       0.051728   -0.016956    0.038436
C       0.811924   -0.455349   -1.245549
C       2.092817   -0.435431   -0.375700
N       1.262136   -0.359758    0.835366
C       2.981621   -1.665186   -0.423356
F       3.661327   -1.706111   -1.584491
F       3.880653   -1.646448    0.572904
F       2.287469   -2.803543   -0.322493
H       0.459585    2.106599   -0.222269
H      -1.206255    1.631223   -0.599783
H      -0.681030    1.736697    1.085598
H      -0.804228   -0.648021    0.303595
H       0.549932   -1.455431   -1.591269
H       0.789357    0.241001   -2.084184
H       2.743105    0.428145   -0.565474
H       1.548300    0.328122    1.523026
