11

C       0.071421   -1.167295   -0.004620
C      -0.011714    0.031213    0.002975
C      -0.094226    1.439260    0.011707
N      -1.157212    2.190218    0.030333
C      -0.612534    3.456422    0.029830
N       0.705823    3.482469    0.012579
O       1.057397    2.144405    0.000412
C      -1.389004    4.641542    0.047047
C      -2.052171    5.642788    0.061696
H       0.138829   -2.228193   -0.011262
H      -2.638767    6.528690    0.074648
