16

O      -0.109645    1.374593    0.029398
C       0.019606   -0.006478    0.036362
C      -0.512296   -0.740113    1.211247
C       0.991730   -0.774423    0.915351
C       1.491508   -1.938837    0.096859
O       2.207238   -2.828328    0.466329
N       1.039688   -1.807188   -1.271144
C      -0.389798   -2.109436   -1.521191
C       0.066306   -0.710215   -1.317579
H       0.663219    1.751427   -0.407119
H      -0.776650   -0.118943    2.059795
H      -1.122458   -1.628118    1.099309
H       1.656710   -0.325099    1.642516
H      -0.604238   -2.466040   -2.524796
H      -0.951166   -2.611811   -0.740438
H       0.133828   -0.045026   -2.175438
