20

O      -0.102292   -0.027828    0.032103
C      -0.023917    1.168458   -0.088119
C       1.256915    1.966691   -0.039703
C       1.386298    2.961202   -1.222239
C       2.049962    4.212889   -0.618568
C       1.396301    4.315246    0.765900
C       1.306211    2.863646    1.227650
C       0.693103    2.455187    2.518577
N       2.158048    2.471016    2.359158
H      -0.938319    1.793512   -0.226599
H       2.089738    1.256446   -0.025283
H       1.938006    2.530727   -2.061188
H       0.386006    3.221980   -1.593287
H       3.128863    4.051412   -0.511346
H       1.908245    5.104220   -1.235326
H       1.956154    4.919379    1.482807
H       0.389396    4.742225    0.672890
H       0.296599    3.213142    3.189476
H       0.187977    1.494264    2.573435
H       2.497921    1.520020    2.232015
