14

O       0.572139    0.606630   -0.817309
C      -0.099106    0.243973    0.366401
C      -1.460098   -0.350176    0.114894
C      -1.973225   -0.697293   -1.085344
N      -3.239482   -1.229143   -1.203946
C      -3.927241   -1.398292   -0.124943
C      -3.458000   -1.065991    1.223988
O      -4.049082   -1.207949    2.256356
O      -2.169887   -0.518774    1.250972
H       0.128653    1.375078   -1.191916
H       0.528909   -0.502569    0.867658
H      -0.209695    1.081751    1.071731
H      -1.392749   -0.575308   -1.988668
H      -4.929471   -1.814520   -0.185429
