18

C      -0.198960    1.512655   -0.029844
N       0.056657    0.081523    0.056172
C       1.379240   -0.513833   -0.183484
C       2.588661    0.368356   -0.100326
C       2.723876    0.892954    1.121134
C       1.665090    0.372441    2.035498
C       1.856855    0.163572    3.479684
O       1.086099    1.264399    3.005759
C       0.761906   -0.501458    1.186904
H       0.628304    2.157210    0.293535
H      -0.446145    1.757595   -1.067699
H      -1.068844    1.738975    0.593012
H       1.382817   -1.385357   -0.831364
H       3.224275    0.577940   -0.952464
H       3.453423    1.627305    1.441626
H       1.293925   -0.624624    3.980521
H       2.810825    0.418660    3.940071
H       0.292457   -1.366177    1.647455
