15

C      -0.024737    1.519648    0.013891
C      -0.004585    0.020170   -0.036732
C      -0.041601   -0.706430   -1.191973
C      -0.021709   -2.131897   -1.222666
C       0.037164   -2.760792   -0.026107
F       0.062426   -4.077482    0.115592
N       0.075164   -2.074943    1.140115
C       0.058719   -0.664561    1.248185
O       0.096534   -0.142914    2.349768
H       0.866359    1.904504    0.521612
H      -0.072356    1.950153   -0.989423
H      -0.882199    1.878582    0.593439
H      -0.088676   -0.180125   -2.141105
H      -0.051330   -2.698939   -2.140942
H       0.118798   -2.583409    2.013386
