16

C      -0.010879    1.251483   -0.370883
N      -0.073426   -0.083752    0.187990
C      -1.133472   -0.900092    0.042134
O      -2.168418   -0.666347   -0.562589
C      -0.937089   -2.261856    0.727033
O       0.107281   -2.591547    1.235355
C      -2.190818   -3.161232    0.755053
C      -2.490553   -3.960334   -0.484263
O      -2.837637   -3.179316    1.772676
H       0.133996    1.999213    0.415578
H       0.807180    1.338685   -1.093805
H      -0.957549    1.443325   -0.877775
H       0.704056   -0.463674    0.709847
H      -1.616461   -4.553636   -0.775980
H      -3.347241   -4.612985   -0.308560
H      -2.706291   -3.262807   -1.300913
