19

C      -0.149342    1.545434   -0.009499
C       0.053145    0.034687    0.030761
C       1.074955   -0.571530   -0.951182
C       2.430649   -0.014149   -0.481365
C       2.251160   -0.008952    1.068338
C       0.804755   -0.566909    1.245449
C       0.888304   -2.018195    0.787078
O       0.859934   -3.039407    1.407869
O       1.053128   -1.976482   -0.575317
H       0.778341    2.104359    0.136829
H      -0.572306    1.850361   -0.972697
H      -0.850506    1.857342    0.770810
H      -0.913799   -0.462048   -0.105674
H       0.861606   -0.506201   -2.017469
H       3.243356   -0.662502   -0.813992
H       2.611880    0.986217   -0.883111
H       2.986326   -0.630328    1.583844
H       2.324838    0.997857    1.485606
H       0.373882   -0.455353    2.238209
