16

C      -0.048126    1.441225    0.162405
C      -0.047013   -0.006515    0.017579
C      -0.051503   -1.203707   -0.100934
C      -0.015262   -2.646716   -0.253392
O      -1.336064   -3.179481   -0.001743
C      -1.434858   -4.521778   -0.112975
C      -2.846922   -4.975707    0.167607
O      -0.507220   -5.236471   -0.398440
H       0.644373    1.764275    0.947191
H       0.246892    1.935694   -0.769404
H      -1.045960    1.805644    0.429847
H       0.298292   -2.938347   -1.261773
H       0.692023   -3.108692    0.444120
H      -3.539164   -4.500837   -0.533252
H      -2.904296   -6.059256    0.072656
H      -3.144939   -4.671389    1.174820
