18

C       0.069266    1.579218   -0.195034
C       0.002016    0.086613    0.020094
N       1.274633   -0.677197    0.004307
C       0.524614   -0.615439    1.245252
C       1.145145    0.137430    2.414862
C       1.940794   -0.743833    3.263010
C       2.580582   -1.492579    3.951268
C      -1.162443   -0.609032   -0.601524
O      -2.057996   -0.062012   -1.192389
H       0.998178    1.993837    0.198082
H       0.018482    1.803328   -1.264058
H      -0.779015    2.076077    0.284235
H       1.160058   -1.579079   -0.456179
H      -0.017010   -1.511205    1.548354
H       1.772269    0.948415    2.033274
H       0.347426    0.600208    3.010083
H       3.156266   -2.141740    4.563358
H      -1.132979   -1.721005   -0.486074
