21

C       0.079486    1.590774    0.279005
C       1.518452    1.577015   -0.302367
C       1.239665    0.154740   -0.883498
C       2.316928   -0.876895   -0.750343
C       2.126577   -2.130116   -0.339119
C       0.764920   -2.679994    0.015787
C       0.129953   -2.001295    1.246155
O       0.258102   -0.590690    1.280072
C      -0.013930    0.064878    0.062242
H      -0.042463    1.911396    1.315173
H      -0.625698    2.137205   -0.352624
H       1.780136    2.361100   -1.016435
H       2.277606    1.547533    0.483010
H       0.912667    0.242856   -1.928962
H       3.323334   -0.544641   -1.001866
H       2.979484   -2.798425   -0.255028
H       0.089036   -2.570958   -0.841387
H       0.817828   -3.754678    0.219295
H      -0.933816   -2.287635    1.298475
H       0.614975   -2.351372    2.163068
H      -0.941549   -0.316472   -0.388198
