21

C      -0.087991    1.625601    0.040777
C      -0.018416    0.095493    0.035743
C      -1.407310   -0.549830    0.099174
C      -1.391360   -2.098797    0.006256
C      -0.698098   -2.770908    1.210172
C      -2.757306   -2.594346   -0.134291
C      -3.898273   -2.986123   -0.214696
C      -5.248642   -3.460056   -0.360928
O      -6.026413   -3.620278    0.552643
H       0.911775    2.067961   -0.004010
H      -0.657849    1.999488   -0.816811
H      -0.576216    1.996162    0.948683
H       0.498469   -0.245775   -0.871189
H       0.592546   -0.239970    0.881599
H      -1.915057   -0.259370    1.027421
H      -2.021154   -0.161109   -0.721756
H      -0.839147   -2.370918   -0.904746
H       0.351044   -2.470826    1.268126
H      -1.193681   -2.490128    2.144260
H      -0.735662   -3.859480    1.120845
H      -5.541077   -3.677161   -1.409110
