16

N      -0.129188    1.241774    0.110161
C      -0.058518   -0.009328   -0.000600
O       1.109696   -0.751900   -0.054568
C       0.877400   -2.183729   -0.317130
C      -0.541543   -2.197896   -0.869793
C      -1.931415   -2.606529   -0.279256
C      -1.570840   -1.991756    1.077012
C      -1.130785   -1.036536   -0.075519
O      -2.441606   -1.251977   -0.711812
H       0.804192    1.657788    0.126728
H       1.639136   -2.491467   -1.035201
H       1.023458   -2.734629    0.615090
H      -0.582302   -2.032263   -1.947612
H      -2.571293   -3.451980   -0.530795
H      -2.415540   -1.624833    1.657926
H      -0.807211   -2.470819    1.690949
