16

O       0.029117    1.417185    0.227942
C       0.055238    0.019916    0.070184
C      -0.531081   -0.806463    1.211641
O      -0.985676   -0.126563    2.343700
C      -1.281200   -0.637512   -0.079870
C      -2.640544    0.011658   -0.279582
C      -2.859578   -1.156197   -1.269214
O      -1.529627   -1.680548   -1.018423
H       0.863911    1.685034    0.629015
H       0.887594   -0.387770   -0.501262
H      -0.082793   -1.768807    1.442729
H      -0.893875    0.815065    2.142273
H      -3.277275    0.013875    0.606460
H      -2.620043    1.007979   -0.723038
H      -3.634770   -1.877580   -0.989157
H      -2.987577   -0.873928   -2.319622
