20

C       0.452679    0.871229    0.569538
C      -0.283701    0.254424   -0.622588
N       0.437065   -0.658905   -1.497480
C       1.638906   -0.928726   -1.271151
O       2.273731   -1.800100   -2.132125
C       3.590119   -2.099782   -1.889277
O       4.224065   -1.649752   -0.973132
C       4.096432   -3.063412   -2.936610
C       5.560198   -3.445508   -2.733227
H       0.812254    0.107192    1.266764
H       1.310597    1.473280    0.252236
H      -0.228386    1.527791    1.119028
H      -1.168643   -0.289401   -0.267242
H      -0.678466    1.052739   -1.264474
H       2.286082   -0.570975   -0.472529
H       3.440520   -3.942075   -2.918896
H       3.929257   -2.600812   -3.916730
H       6.204317   -2.563408   -2.769807
H       5.709932   -3.920272   -1.760339
H       5.882858   -4.142061   -3.511468
