21

C       0.040994    1.388889   -0.325400
N       0.070962   -0.028665    0.002273
C       1.357325   -0.725337   -0.022019
C       0.642434   -0.504523    1.268683
C       1.219925    0.452811    2.292248
C      -0.149262   -1.643180    1.909086
N      -0.854684   -2.430356    0.921699
C      -0.972743   -3.778992    0.987215
O      -0.549303   -4.479688    1.884284
H       0.951921    1.939768   -0.049531
H      -0.098967    1.494450   -1.405933
H      -0.811247    1.861707    0.173029
H       1.360338   -1.701700   -0.499338
H       2.250871   -0.127482   -0.198072
H       1.852508    1.218562    1.839787
H       0.425123    0.953574    2.856934
H       1.834977   -0.099469    3.010708
H       0.514476   -2.314170    2.461945
H      -0.853383   -1.214538    2.638428
H      -1.199554   -1.919271    0.121009
H      -1.514360   -4.184813    0.109080
