20

C      -0.013195    1.640744    0.088269
C       0.036457    0.118963    0.022292
C       1.109968   -0.543564   -0.924509
C       1.927239    0.289064   -1.894188
N       1.827360   -1.086161    0.287800
C       0.722901   -0.639039    1.205579
C       1.760263    0.059485    2.113359
C       2.759918   -0.267097    0.976998
O       3.872043    0.072862    0.689875
H       0.970767    2.088378    0.255164
H      -0.407856    2.057395   -0.843985
H      -0.669197    1.967653    0.902248
H      -0.970375   -0.261952   -0.171507
H       0.672728   -1.392057   -1.460778
H       2.390094    1.155742   -1.418092
H       2.729103   -0.315775   -2.327444
H       1.287464    0.640401   -2.710422
H       0.126438   -1.430111    1.664568
H       1.640363    1.127247    2.304955
H       1.951854   -0.450416    3.060979
