17

C      -0.574004    1.637569   -0.102839
C      -0.310639    0.207581   -0.057965
C      -0.102570   -0.977666   -0.005393
C       0.165533   -2.394892   -0.006293
C       0.356497   -3.136524    1.256225
O      -0.867465   -3.241996    0.533534
C       0.798360   -2.909376   -1.272723
C       2.256487   -2.991001   -1.416907
O       1.465250   -4.162803   -1.199371
H      -0.001717    2.172914    0.662607
H      -0.304589    2.059042   -1.077286
H      -1.635756    1.846283    0.067575
H       0.981643   -4.026136    1.241348
H       0.301548   -2.590685    2.196222
H       0.191030   -2.766993   -2.166511
H       2.706968   -2.906396   -2.403983
H       2.891599   -2.696828   -0.583012
