21

C       0.076404    1.581327   -0.020806
C       0.283847    0.065059   -0.048371
C       0.529116   -0.527604    1.346508
C       0.685398   -2.032983    1.323425
O      -0.473627   -2.762721    0.996915
C       2.004258   -2.674705    0.913017
O       3.122504   -1.880962    0.656718
C       1.516739   -2.753954    2.349946
O       2.216713   -1.958755    3.274830
H       0.953800    2.091330    0.392224
H      -0.097594    1.979404   -1.025410
H      -0.785023    1.852125    0.599752
H      -0.599379   -0.409061   -0.497569
H       1.137474   -0.183485   -0.689939
H       1.422016   -0.072919    1.784447
H      -0.307270   -0.281761    2.013004
H      -0.612621   -2.680413    0.046850
H       1.963145   -3.566823    0.293717
H       3.392941   -1.517216    1.511666
H       1.112265   -3.687462    2.732980
H       2.874762   -2.518290    3.701638
