12

N       0.077859    1.374996    0.192562
C      -0.050621    0.020789    0.069871
C      -1.115933   -0.849798    0.036625
N      -2.481228   -0.944484    0.032646
N      -2.861381   -2.114517   -0.016360
O      -1.599659   -3.042340   -0.054443
C      -0.591771   -2.177788   -0.019590
C       0.757818   -2.084598   -0.020715
O       1.071979   -0.708259    0.035158
H       0.957880    1.750469   -0.130672
H      -0.725817    1.911550   -0.096599
H       1.599832   -2.747654   -0.050522
