19

O       0.192249    1.379247   -0.068569
C       0.024161    0.009896    0.020685
C      -0.372011   -0.735832    1.270650
C      -1.158774    0.015789    2.354121
C      -2.626981    0.097390    1.900458
C      -3.034313    1.094958    0.850008
O      -2.270034    2.230365    0.521207
C      -2.653771   -0.295854    0.420501
C      -1.269853   -0.786465    0.027245
H      -0.671118    1.811070    0.039672
H       0.805105   -0.489174   -0.550966
H       0.223172   -1.588092    1.584573
H      -1.101327   -0.519924    3.304513
H      -0.729056    1.011317    2.526310
H      -3.390053   -0.231120    2.599151
H      -4.103422    1.298860    0.791440
H      -2.250821    2.813545    1.288770
H      -3.469915   -0.884502    0.014669
H      -1.286507   -1.664818   -0.610189
