14

C      -0.030656    1.543419   -0.023015
C      -0.004820    0.042441   -0.024780
C      -0.107182   -0.733550   -1.167093
N      -0.084346   -2.077165   -1.176007
C       0.045451   -2.624907    0.010067
F       0.072304   -3.944063    0.044816
N       0.154536   -2.031873    1.189242
C       0.128132   -0.704963    1.158960
O       0.235423   -0.054379    2.325637
H       0.888928    1.957343    0.404010
H      -0.140397    1.929612   -1.039633
H      -0.859602    1.926957    0.581193
H      -0.213647   -0.254925   -2.138198
H       0.317128   -0.729824    3.014729
