17

N       0.251271   -1.040870    0.918400
C       0.149614    0.044931    0.532885
C       0.023819    1.411861    0.023060
C      -0.585928    2.428852    1.036417
C       0.824742    3.069177    1.102506
C       1.738163    2.668997    2.230592
C       2.699007    1.858862    1.789769
C       2.554282    1.590664    0.306229
N       1.275388    2.228866   -0.054245
H      -0.488570    1.357084   -0.943304
H      -1.347938    3.066132    0.586367
H      -0.965516    1.999420    1.963092
H       0.850165    4.149754    0.912432
H       1.628022    3.041567    3.242006
H       3.509480    1.451993    2.382742
H       3.379925    2.035969   -0.266599
H       2.540904    0.521827    0.064288
