21

C      -0.428057    1.527502   -0.016771
C       0.009563    0.069013   -0.025133
C       1.070014   -0.462414   -1.055363
C       1.825571   -1.199985    0.094082
C       3.027461   -0.505317    0.780994
C       2.906874    0.989474    0.770410
C       2.071707    0.212037    1.748158
C       0.867160   -0.533883    1.131935
O       0.212651   -1.231094    2.153752
H       0.419542    2.212635    0.065848
H      -0.975501    1.781245   -0.931392
H      -1.092313    1.723872    0.832149
H      -0.889052   -0.559450   -0.104594
H       0.655895   -1.123689   -1.819933
H       1.646914    0.313683   -1.563805
H       1.895555   -2.285760    0.028542
H       3.970121   -0.993201    0.998486
H       3.742055    1.512536    1.227208
H       2.479243    1.523048   -0.069939
H       2.156871    0.357590    2.818216
H      -0.432852   -1.820358    1.748912
