17

O      -0.030652   -0.054900    0.084958
C       0.013885    1.149262    0.077661
C       1.289124    1.961408    0.018984
C       1.312590    2.952898   -1.188596
C       1.896466    4.243358   -0.613139
C       1.191571    4.828339    0.593635
O       0.320064    3.859067    1.181430
C       1.440398    2.912244    1.218160
C       2.431929    4.012694    0.786990
H      -0.910266    1.765966    0.113608
H       2.135229    1.267821   -0.013349
H       1.928954    2.560909   -2.001167
H       0.305829    3.112353   -1.590108
H       2.413862    4.942364   -1.260781
H       0.963178    5.876401    0.746408
H       1.539595    2.446227    2.199381
H       3.416296    4.233603    1.173762
