19

C      -0.186492    1.588331   -0.166708
C      -0.035163    0.072338   -0.056560
C       0.781307   -0.572897   -1.211452
O       0.881144    0.231786   -2.356956
C       1.979059   -0.617537   -0.225240
N       1.009370   -0.445363    0.871359
C       1.379282    0.300119    2.053501
C       2.350146   -0.450391    2.861230
N       3.129094   -1.029143    3.487629
H       0.765595    2.086846   -0.366841
H      -0.859416    1.827882   -0.994322
H      -0.617042    2.006269    0.749028
H      -1.014973   -0.380949    0.134636
H       0.414531   -1.577658   -1.451445
H       1.356155   -0.257412   -3.035377
H       2.581611   -1.529038   -0.164739
H       2.642389    0.248504   -0.379831
H       1.818107    1.293647    1.845370
H       0.485328    0.469240    2.665778
