16

C      -0.152499    1.539167   -0.076361
C      -0.060596    0.035277    0.034003
C      -1.187352   -0.751023   -0.599021
O       1.244979   -0.516814   -0.168552
C       0.692170   -0.598671    1.153760
C       1.335039    0.161671    2.186641
C       1.863760    0.775358    3.084374
C       2.459130    1.473736    4.094091
N       2.963150    2.069565    4.954907
H       0.700653    2.024444    0.400265
H      -0.172956    1.831523   -1.131242
H      -1.072269    1.903888    0.391772
H      -1.249493   -0.519499   -1.667490
H      -1.025386   -1.826009   -0.491370
H      -2.146937   -0.489950   -0.141788
H       0.396728   -1.603144    1.457492
