19

C      -0.002708    1.582850    0.121327
C       0.075428    0.053560    0.104759
C       0.649292   -0.523767   -1.201446
C       2.116855   -0.124713   -1.455636
C       0.524660   -2.019097   -1.258787
N       0.148104   -2.758544   -0.248521
O       0.187496   -4.066567   -0.757818
C       0.586574   -3.952420   -2.023727
N       0.813898   -2.739821   -2.407900
H       0.986254    2.048133    0.069669
H      -0.593170    1.960525   -0.721392
H      -0.480078    1.932293    1.041664
H       0.680517   -0.299751    0.948044
H      -0.925273   -0.362775    0.261064
H       0.054448   -0.142677   -2.043767
H       2.490573   -0.594203   -2.368699
H       2.210870    0.958229   -1.565828
H       2.752982   -0.440740   -0.621772
H       0.677728   -4.865079   -2.594755
