18

C      -0.209738    1.581857   -0.022197
C       0.011185    0.081229    0.026058
C       1.254278   -0.578843   -0.612991
C       2.177671   -0.070001    0.551041
C       0.824390   -0.585045    1.159236
N       0.980047   -1.813758    0.254419
C       2.291874   -2.411822    0.570500
C       3.175056   -1.175320    0.789176
O       4.342105   -1.107289    1.072361
H       0.694283    2.155439    0.197882
H      -0.563393    1.883782   -1.013719
H      -0.977147    1.878017    0.700805
H      -0.905858   -0.472021   -0.198316
H       1.520288   -0.677821   -1.668093
H       2.523777    0.957013    0.638589
H       0.577571   -0.691413    2.218276
H       2.233328   -3.037547    1.466791
H       2.651529   -3.031375   -0.257210
