19

C      -0.590246    1.365655    0.261424
C      -0.065936   -0.038566    0.036038
C       0.759481   -0.277338   -1.249535
C       1.956732   -0.395165   -0.276443
C       3.025497   -1.515881   -0.380220
C       4.093633   -0.478558   -0.841122
C       3.105202    0.632408   -0.434327
O       3.188835    1.810069   -0.241756
O       1.101558   -0.320827    0.860237
H       0.203074    2.099233    0.088010
H      -1.425843    1.575881   -0.415506
H      -0.945488    1.478474    1.290256
H      -0.847688   -0.783951    0.223730
H       0.528810   -1.204413   -1.777564
H       0.791719    0.554033   -1.956155
H       3.243644   -1.928089    0.607727
H       2.798655   -2.331639   -1.068815
H       5.050640   -0.469825   -0.314798
H       4.290319   -0.481368   -1.917870
