20

C      -0.135193    1.427827   -0.153359
C      -0.033690   -0.100717   -0.105293
C       0.529873   -0.568079    1.243949
O      -1.365284   -0.573847   -0.283515
C       0.883096   -0.596505   -1.231542
C       0.805213   -1.998783   -1.767235
N       0.388892   -0.872171   -2.566549
C      -0.902112   -0.724473   -3.055965
O      -1.563705   -1.627563   -3.505045
H       0.851814    1.887571   -0.050756
H      -0.572897    1.754927   -1.100016
H      -0.773727    1.783809    0.659301
H      -0.098998   -0.199503    2.059099
H       0.562397   -1.662188    1.295302
H       1.548510   -0.199181    1.399629
H      -1.400780   -1.509681   -0.059333
H       1.867490   -0.128792   -1.215493
H       1.710341   -2.511694   -2.080567
H       0.012647   -2.652613   -1.409597
H      -1.216651    0.333596   -3.083644
