19

C       0.012581    1.353357    0.233583
O       0.010321   -0.051232    0.146196
C      -1.279086   -0.584859   -0.070584
C      -1.166154   -2.078153   -0.163337
C      -0.224794   -2.723151   -1.181591
C      -0.884723   -4.056907   -1.466067
C      -2.037055   -4.203533   -0.806877
C      -2.286148   -3.012759    0.060244
O      -1.262516   -2.810508    1.063835
H       1.046381    1.669513    0.391438
H      -0.366358    1.821337   -0.689521
H      -0.601390    1.711281    1.075025
H      -1.961043   -0.320312    0.752753
H      -1.705861   -0.181765   -1.006533
H      -0.132888   -2.108346   -2.085927
H       0.784845   -2.833153   -0.771609
H      -0.431899   -4.801399   -2.111399
H      -2.693293   -5.063898   -0.843416
H      -3.284519   -2.703133    0.356924
