19

C      -0.081935    1.568325   -0.043927
C       1.451613    1.516960    0.004527
C       1.393465    0.194738    0.827066
C       2.531537   -0.442942   -0.051956
C       2.249000   -1.829728   -0.553961
C       1.174562   -1.762273   -1.347568
C       0.671799   -0.337610   -1.366064
C       0.042561    0.022080    0.021850
C       1.947779    0.532729   -1.119216
H      -0.503372    2.001558    0.868480
H      -0.579462    1.999138   -0.920085
H       2.088122    2.362288    0.262823
H       1.367053    0.142439    1.914273
H       3.532758   -0.223221    0.321323
H       2.781822   -2.723432   -0.252424
H       0.656641   -2.591256   -1.814945
H       0.038982   -0.060801   -2.211353
H      -0.769419   -0.612184    0.376700
H       2.527124    0.850763   -1.986751
