16

N      -0.098146    1.293261    0.389691
C      -0.050204    0.066667    0.063567
O       1.148747   -0.558168   -0.174860
C       1.133013   -1.782119   -0.937243
C       0.096959   -2.772152   -0.380104
C      -1.215442   -2.074906   -0.164405
C      -1.264284   -0.753501    0.012543
C       0.928022   -1.507015   -2.361356
C       0.773314   -1.289374   -3.532520
H       0.843174    1.691970    0.382352
H       2.140512   -2.186241   -0.799904
H      -0.008146   -3.610207   -1.075779
H       0.466731   -3.189372    0.566154
H      -2.121231   -2.672967   -0.143717
H      -2.189127   -0.213740    0.172727
H       0.636110   -1.089740   -4.566936
