25

C      -0.323078    1.418369   -0.039980
C       0.068384   -0.063477   -0.004476
C       0.842988   -0.500084    1.244130
C       2.192195    0.213788    1.368460
C       0.042886   -0.475638    2.590285
C       0.561411   -1.904248    2.905848
C      -0.432451   -2.904032    3.457394
O       0.213822   -4.166491    3.544394
C       0.995821   -2.045579    1.422692
H       0.552443    2.072714   -0.089944
H      -0.944357    1.636076   -0.914376
H      -0.896533    1.698530    0.850736
H      -0.842339   -0.672513   -0.074180
H       0.663752   -0.307317   -0.895546
H       2.070682    1.295911    1.483075
H       2.751564   -0.145999    2.238591
H       2.811452    0.035822    0.481253
H       0.287780    0.316133    3.303757
H      -1.039787   -0.462903    2.420102
H       1.430834   -1.876956    3.569677
H      -0.789731   -2.568064    4.445722
H      -1.311357   -2.951871    2.792007
H      -0.424475   -4.810953    3.863479
H       0.258962   -2.604238    0.835677
H       1.983556   -2.471183    1.228227
