18

C      -0.231521    1.422556    0.075501
O       0.064549    0.037505   -0.100942
C       0.671942   -0.541418    0.979760
C       1.987810   -0.955663    1.066574
C       3.094245   -0.866086    0.071844
N       2.104073   -1.509274    2.299944
N       0.947582   -1.493066    3.018838
C       0.073503   -0.900129    2.216699
N      -1.240055   -0.629734    2.609078
H       0.687867    2.009301    0.200149
H      -0.751273    1.750216   -0.827927
H      -0.874520    1.583741    0.948888
H       3.929391   -0.257533    0.437584
H       3.492702   -1.853421   -0.188964
H       2.712549   -0.406122   -0.842353
H       2.916877   -1.936433    2.706673
H      -1.490570   -1.157079    3.436701
H      -1.902633   -0.812066    1.865145
