15

C       0.065242    1.386942    0.006839
O      -0.016059   -0.025078    0.003067
C      -1.241445   -0.579388    0.010926
C      -2.413103    0.101418    0.022401
N      -3.598698   -0.615997    0.029210
C      -3.569386   -1.971641    0.024162
N      -2.498499   -2.688787    0.013370
C      -1.238117   -2.068441    0.006232
O      -0.205616   -2.703766   -0.005263
H       1.127490    1.633039   -0.000791
H      -0.414244    1.818715   -0.882521
H      -0.400094    1.813123    0.906355
H      -2.506238    1.177429    0.026722
H      -4.480203   -0.129414    0.037732
H      -4.546353   -2.452915    0.029924
