18

N      -0.139064    0.996924    1.563126
C      -0.552666    0.544719    0.450970
N      -1.897317    0.249494    0.276139
C      -2.413281   -0.247591   -0.906477
O      -1.724594   -0.461715   -1.881943
C      -3.915667   -0.542755   -0.899024
C      -4.723161    0.174436    0.154923
C      -5.934278   -0.429775    0.754428
N      -4.704555   -0.296590    1.559583
H       0.865547    1.160166    1.524557
H       0.032830    0.340298   -0.447144
H      -2.504325    0.421709    1.068030
H      -4.275296   -0.304994   -1.905009
H      -4.026985   -1.629655   -0.784531
H      -4.695481    1.260411    0.084496
H      -6.758127    0.204386    1.067323
H      -6.226455   -1.422872    0.423333
H      -4.245380   -1.204651    1.607892
