21

C      -0.005218    1.469947   -0.121143
C      -0.005629    0.014026   -0.084857
C       0.007044   -1.189872   -0.057941
C      -0.013200   -2.647717   -0.020943
C      -1.425504   -3.227084    0.199438
C      -1.420452   -4.744764    0.201097
C      -2.776112   -5.478548    0.089068
C      -2.179470   -6.085862   -1.196017
O      -0.978515   -5.297374   -1.066233
H       1.012080    1.865937   -0.217108
H      -0.586900    1.849246   -0.968882
H      -0.438590    1.894082    0.791679
H       0.383231   -3.055663   -0.958493
H       0.654175   -3.007769    0.774187
H      -1.831077   -2.868569    1.153623
H      -2.092041   -2.866962   -0.592304
H      -0.784309   -5.118175    1.017913
H      -3.009723   -6.180963    0.890185
H      -3.629924   -4.816419   -0.069774
H      -1.967454   -7.161665   -1.148596
H      -2.711236   -5.872755   -2.130732
