17

N       0.039233    1.271980    0.195917
C       0.068315   -0.051237   -0.082732
O       1.095695   -0.622266   -0.433258
C      -1.274242   -0.792901    0.046440
C      -1.036172   -2.317370    0.067943
O      -0.419399   -2.785422   -1.104378
C      -2.108171   -0.356738    1.254600
O      -2.593448    0.972287    1.041100
H       0.890428    1.799738    0.092525
H      -0.821275    1.712808    0.486957
H      -1.854459   -0.559662   -0.856466
H      -0.453890   -2.577164    0.968244
H      -2.003646   -2.826279    0.147682
H       0.415016   -2.291648   -1.148714
H      -2.953274   -1.049702    1.370485
H      -1.504175   -0.407774    2.172332
H      -3.062526    1.254049    1.832380
