22

C       0.166476    1.563932    0.111974
C      -0.291869    0.123394   -0.142275
C       0.436090   -0.500053   -1.312208
N       1.780159   -1.042871   -1.059822
C       0.702185   -1.958270   -1.482541
C       0.296208   -2.987068   -0.479541
O      -0.895736   -3.734187   -0.761509
C       0.348655   -4.441568   -0.714900
C       0.824872   -5.102190   -1.983181
H       1.239148    1.592569    0.327494
H      -0.017695    2.199921   -0.761399
H      -0.363248    2.004946    0.961639
H      -0.123250   -0.476669    0.756647
H      -1.370395    0.099692   -0.342658
H       0.301301    0.043688   -2.248526
H       2.408787   -0.851883   -1.834398
H       0.714045   -2.310102   -2.511184
H       0.384681   -2.655600    0.554873
H       0.457052   -5.063694    0.176870
H       0.684315   -4.461761   -2.856197
H       1.886705   -5.359119   -1.903160
H       0.268280   -6.029380   -2.155281
