12

C      -0.045325    1.531608    0.012276
C       1.407699    1.966334    0.039890
C       2.247954    0.931500   -0.046081
C       1.482099   -0.351010   -0.084094
O       0.687334   -0.573341    1.105269
C       0.053795    0.010162   -0.033811
H      -0.598051    1.875083    0.895073
H      -0.572500    1.923524   -0.867141
H       1.699107    3.004676    0.151880
H       3.329270    0.984301   -0.050226
H       1.867662   -1.250888   -0.553511
H      -0.731865   -0.586981   -0.488934
