23

C      -0.001828    1.481167    0.021691
C      -0.006856   -0.038630    0.002633
C       0.635432   -0.662731   -1.268024
C       0.089180   -2.121436   -1.280882
C      -0.795695   -2.171567   -0.011626
O      -1.780493   -3.180018   -0.008683
C       0.128967   -2.152952    1.229810
C       0.675156   -0.694184    1.236221
C      -1.379140   -0.749075    0.015480
H       1.022435    1.872672    0.010920
H      -0.521282    1.892779   -0.850832
H      -0.494120    1.870450    0.919835
H       0.316195   -0.116640   -2.161703
H       1.728382   -0.613869   -1.235368
H      -0.531917   -2.314829   -2.160392
H       0.881153   -2.877968   -1.261129
H      -1.333634   -4.032845   -0.026264
H      -0.464037   -2.368558    2.123434
H       0.919596   -2.908458    1.166019
H       1.766539   -0.644106    1.170109
H       0.384692   -0.170800    2.153003
H      -1.965342   -0.550972    0.918424
H      -1.993619   -0.528620   -0.863155
