20

C       0.073586    1.408402   -0.247409
C      -0.023512   -0.064439    0.152437
O       0.602728   -0.315599    1.409804
C      -1.447241   -0.552708    0.153768
C      -2.564224   -0.229923    1.153279
C      -3.371159   -1.344870    0.434373
C      -3.539383   -0.761171   -0.976585
N      -2.057712   -0.873680   -1.189430
C      -1.998091   -1.902577   -0.107207
H       1.117151    1.734198   -0.242320
H      -0.343215    1.560345   -1.246844
H      -0.487205    2.041167    0.452372
H       0.535418   -0.668895   -0.570056
H       0.244096    0.314163    2.044348
H      -2.266200   -0.530689    2.161139
H      -2.999850    0.775976    1.173984
H      -4.159004   -1.890303    0.950240
H      -4.037472   -1.437652   -1.675932
H      -3.955035    0.249196   -1.075803
H      -1.550190   -2.881850   -0.214292
