20

C       0.082092    1.552953   -0.006490
C       1.335986    0.716169   -0.010781
C      -0.013052    0.052473    0.019772
C      -0.546536   -0.869711    1.141106
C      -1.098793   -1.821175    0.036549
C      -2.495191   -1.534845   -0.539475
C      -2.821129   -0.100684   -0.630128
N      -1.939206   -0.669244   -1.668695
C      -0.552682   -0.885164   -1.066779
H      -0.167588    2.092238    0.902233
H      -0.199698    2.063525   -0.921600
H       1.910839    0.656659   -0.929763
H       1.933650    0.686266    0.894968
H       0.244084   -1.322800    1.746313
H      -1.295593   -0.438255    1.812367
H      -0.827363   -2.874111    0.087987
H      -3.235917   -2.303251   -0.740695
H      -3.799523    0.155602   -1.026914
H      -2.430214    0.615953    0.083618
H       0.138364   -1.208719   -1.846073
