17

C       0.462000    1.566144   -0.359600
C       0.262373    0.149503   -0.095464
C       0.093404   -1.023993    0.116903
C      -0.101531   -2.435628    0.379343
C      -0.344024   -2.868340    1.853364
C      -1.683934   -3.404077    1.328659
O      -1.427615   -2.921627   -0.008253
C      -1.861622   -4.910568    1.320112
O      -1.408207   -5.652241    2.152587
H       1.367718    1.737480   -0.951258
H      -0.383709    1.981040   -0.918800
H       0.556374    2.136365    0.570928
H       0.670907   -3.026373   -0.128921
H       0.328323   -3.631954    2.244291
H      -0.419028   -2.038211    2.553647
H      -2.589635   -2.949047    1.757560
H      -2.450588   -5.281063    0.451339
