16

O      -0.066531    1.344494    0.142330
C      -0.025445   -0.031745   -0.006209
C      -0.625157   -0.885337    1.093348
C      -1.343841   -0.782385   -0.219327
C      -2.603464    0.057839   -0.351875
C      -3.788887   -0.645290    0.139081
N      -4.717036   -1.213584    0.527071
C       1.157869   -0.514925   -0.748270
O       1.973428    0.255569   -1.202645
H       0.690631    1.673117   -0.369806
H      -0.145524   -1.821848    1.356242
H      -1.016519   -0.318465    1.931122
H      -1.310811   -1.656634   -0.862889
H      -2.483502    0.996522    0.197139
H      -2.767449    0.330854   -1.400411
H       1.246192   -1.612939   -0.872818
