18

O       0.013531    1.398271    0.036939
C       0.036155   -0.011181    0.090467
C      -1.355424   -0.606899   -0.082911
C      -1.398548   -2.124268   -0.035320
O      -2.742520   -2.562381   -0.056618
C      -3.424828   -2.135483    1.105629
C      -3.311209   -0.646509    1.371299
N      -4.215114   -0.042078    2.013696
O      -2.153462   -0.035749    0.983428
H      -0.640081    1.685627    0.684892
H       0.681804   -0.351286   -0.726108
H       0.466077   -0.376357    1.037275
H      -1.785431   -0.261483   -1.031845
H      -0.908873   -2.543191   -0.918723
H      -0.880846   -2.497688    0.864442
H      -4.477555   -2.392283    0.989949
H      -3.035800   -2.664969    1.992617
H      -3.958758    0.936670    2.160043
