19

C      -0.117428    1.573278    0.037824
C       0.022527    0.044182   -0.029330
C       0.791400   -0.492759   -1.213562
C       1.837380   -1.241166   -0.850202
C       1.953594   -1.337948    0.623253
C       2.382970   -2.583387    1.390964
C       3.263725   -1.382397    1.399339
C       0.821452   -0.511482    1.166749
O       0.586946   -0.304358    2.333322
H       0.860963    2.059066   -0.030140
H      -0.738466    1.945460   -0.782427
H      -0.579433    1.862226    0.985646
H      -0.986275   -0.392462    0.016486
H       0.505173   -0.277617   -2.236676
H       2.529081   -1.730509   -1.526745
H       1.812942   -2.800995    2.287878
H       2.676704   -3.445535    0.802224
H       4.178862   -1.398982    0.817644
H       3.291434   -0.781004    2.301750
