18

C       0.148633    1.450521   -0.010342
N       0.008741    0.000116    0.009521
C      -0.072641   -0.691716   -1.206180
C      -0.443017   -1.969256   -1.314179
C      -0.829234   -2.760147   -0.094036
O      -0.580076   -4.153121   -0.233708
C      -0.114293   -2.179610    1.135312
C      -0.097677   -0.656921    1.225667
O      -0.104711   -0.064730    2.286289
H       0.993255    1.739440   -0.644258
H      -0.758800    1.932350   -0.391515
H       0.324562    1.782508    1.011450
H       0.170798   -0.084712   -2.071344
H      -0.514240   -2.442156   -2.286117
H      -1.916944   -2.701516    0.054912
H       0.353508   -4.258820   -0.450547
H      -0.526481   -2.567709    2.067223
H       0.940677   -2.490080    1.090670
