18

C      -0.008578    1.533450   -0.016720
C      -0.031681    0.014156    0.040593
C      -1.437169   -0.627452   -0.022792
C      -1.392580   -1.717824    1.021497
C      -0.246086   -1.751048    1.701517
C       0.724292   -0.707220    1.215907
N       1.716177   -1.156274    0.212476
C       1.015187   -0.683340   -0.874578
O       1.172865   -0.795588   -2.061280
H       1.007052    1.922776    0.106167
H      -0.384089    1.882170   -0.984252
H      -0.639302    1.965829    0.767649
H      -2.219642    0.109384    0.203477
H      -1.663230   -1.016915   -1.022675
H      -2.227259   -2.392909    1.180953
H      -0.009550   -2.446883    2.499028
H       1.168487   -0.088598    2.001751
H       2.388260   -1.910502    0.253810
