21

C      -0.255191    1.483454   -0.030792
C       0.026438   -0.014058   -0.083904
C       1.330885   -0.427823   -0.797957
O       1.899182   -0.929735    0.427428
C       0.690584   -0.660270    1.153788
C       0.768075   -0.089375    2.592328
C      -0.678781   -0.634797    2.781551
C       0.085027   -1.773793    2.047748
C       1.272247   -1.503141    3.021800
H       0.618656    2.033769    0.333918
H      -0.500317    1.867378   -1.027125
H      -1.096731    1.714495    0.629776
H      -0.856327   -0.557555   -0.432908
H       1.233168   -1.215432   -1.555152
H       1.922336    0.397650   -1.213397
H       1.160687    0.878505    2.906226
H      -0.970445   -0.849183    3.812202
H      -1.484686   -0.135969    2.237596
H      -0.308521   -2.739673    1.727626
H       2.264539   -1.795446    2.678305
H       1.103987   -1.771483    4.068237
