20

C       0.040158    1.542144   -0.080325
C       0.012490    0.025317    0.119180
O       0.607509   -0.352494    1.351798
C      -1.404809   -0.555758    0.012138
C      -1.458632   -2.078679    0.053013
C      -2.917030   -2.536193    0.151296
N      -3.685475   -1.801452    1.153863
C      -3.239233   -0.687822    1.543501
O      -2.135520   -0.005808    1.133875
H       1.061007    1.911946    0.042581
H      -0.311528    1.815867   -1.080835
H      -0.602260    2.039442    0.652766
H       0.620936   -0.454476   -0.657079
H       0.014172   -0.037409    2.044774
H      -1.884618   -0.185497   -0.904682
H      -0.974784   -2.488144   -0.840200
H      -0.888017   -2.419741    0.922380
H      -3.424619   -2.428549   -0.816965
H      -2.969449   -3.600911    0.402731
H      -3.750386   -0.119001    2.318616
