16

C       0.351597    1.511648   -0.091350
C      -0.016224    0.032528    0.118596
C       0.596228   -0.553998    1.342712
N       0.002615   -1.010786    2.405797
C       1.029189   -1.422129    3.232155
C       2.227590   -1.191898    2.624296
O       1.948743   -0.627585    1.396192
C       3.564960   -1.406401    2.987026
C       4.708066   -1.597939    3.314862
H       1.434271    1.636679   -0.177132
H      -0.110240    1.890273   -1.007269
H       0.003085    2.123602    0.745596
H      -1.097413   -0.088976    0.216228
H       0.303190   -0.550949   -0.753456
H       0.849586   -1.854300    4.203382
H       5.715951   -1.766848    3.603678
