20

C       0.070305    1.509104   -0.197888
C       0.000502    0.022731    0.170317
C      -1.418341   -0.526896    0.098344
C      -2.041838   -0.859819   -1.297494
N      -1.113575   -2.065732   -1.326872
C      -1.452336   -3.189488   -2.203057
C      -1.637974   -2.072548    0.103115
C      -3.020989   -1.795271   -0.541694
O      -4.125194   -2.237391   -0.606647
H       1.092464    1.888227   -0.104852
H      -0.253616    1.678248   -1.230382
H      -0.569511    2.115196    0.453435
H       0.649128   -0.561827   -0.485764
H       0.370763   -0.116173    1.194177
H      -2.096110    0.018677    0.762327
H      -2.183057   -0.218493   -2.166254
H      -1.201418   -2.911046   -3.231033
H      -0.827190   -4.043031   -1.924094
H      -2.506646   -3.503381   -2.173122
H      -1.314213   -2.812651    0.833814
