16

O      -0.063670   -0.009499   -0.017749
C      -0.035367    1.189906   -0.011263
N      -1.021675    2.151491   -0.021601
C      -0.121745    3.302182    0.079155
C       1.057781    2.288704    0.029668
C       2.210443    2.330087    1.087101
C       3.206933    2.465696   -0.076400
O       3.029017    1.318696   -0.910767
C       2.124170    2.409727   -1.072097
H      -2.027721    2.079271    0.008811
H      -0.182152    3.997704   -0.765475
H      -0.204114    3.860287    1.017988
H       2.151746    3.215875    1.724597
H       2.336204    1.434386    1.698823
H       4.172197    2.956896   -0.101547
H       2.023167    2.841273   -2.061727
