19

N      -0.077424   -1.197965   -0.004139
C      -0.068350   -0.042566    0.002493
C      -0.032479    1.418119    0.010426
C       1.404782    1.976106   -0.000865
C       1.425187    3.507644    0.007409
C       2.847379    4.076271   -0.003563
C       2.852471    5.618063    0.005011
C       4.203042    6.175518   -0.005034
N       5.278124    6.598830   -0.013673
H      -0.588516    1.783754   -0.860985
H      -0.570846    1.773804    0.896914
H       1.945830    1.588715    0.869551
H       1.928286    1.598416   -0.886147
H       0.872669    3.886051   -0.863598
H       0.890120    3.876315    0.893362
H       3.404177    3.711836    0.866836
H       3.386734    3.721614   -0.888858
H       2.310811    6.004337   -0.866560
H       2.328147    5.994506    0.891337
