23

C       0.016589    1.551294   -0.019098
C       0.052399    0.017528   -0.010000
C       0.774135   -0.508503   -1.257354
C       0.688533   -0.525142    1.305413
C      -0.038579   -0.035440    2.480548
C      -0.654204    0.336885    3.444425
C       0.765803   -2.050678    1.354502
C       2.005744   -2.783769    0.906312
C       1.649059   -2.724769    2.370128
H       1.032757    1.964685   -0.012405
H      -0.483127    1.919791   -0.920657
H      -0.512733    1.945340    0.851601
H      -0.983627   -0.347495   -0.031816
H       1.826270   -0.198813   -1.262713
H       0.745872   -1.598281   -1.322935
H       0.308503   -0.103132   -2.161532
H       1.717779   -0.137186    1.358425
H      -1.187108    0.671562    4.299562
H      -0.184896   -2.537799    1.153432
H       1.886029   -3.724704    0.380098
H       2.850304   -2.193377    0.566431
H       2.247485   -2.088994    3.014388
H       1.284928   -3.624819    2.852383
