11

N      -0.026755    1.208506    0.438859
C       0.007498    0.020831    0.020557
O       1.172968   -0.577082   -0.390637
C       1.134120   -1.872143   -0.834564
C       0.012745   -2.576038   -0.883888
O      -1.201565   -2.064878   -0.493780
C      -1.285404   -0.781165   -0.031685
O      -2.338961   -0.340382    0.304666
H       0.907791    1.622249    0.419119
H       2.101700   -2.245488   -1.133496
H      -0.051205   -3.596864   -1.228258
