17

O      -0.073255    1.413370   -0.098359
C       0.013387    0.002031    0.010361
C      -1.416449   -0.536061   -0.004606
C      -1.464010   -2.024126    0.110364
C      -2.654346   -3.017294    0.039624
C      -1.380830   -3.887614   -0.049768
O      -0.789081   -2.859686   -0.945404
C      -0.765700   -3.025965    1.081819
O      -0.050053   -3.071167    2.027944
H       0.820001    1.769099   -0.103419
H       0.576667   -0.437003   -0.825894
H       0.510666   -0.304386    0.942886
H      -1.973211   -0.103549    0.835003
H      -1.918103   -0.213920   -0.923986
H      -3.307048   -3.119673    0.910631
H      -3.197116   -2.961434   -0.905595
H      -1.259365   -4.930604   -0.331161
