11

N      -0.155775    1.381364   -0.086262
C       0.179545    0.030514   -0.014766
O       1.312531   -0.370871    0.056401
N      -0.970015   -0.774499    0.033993
C      -1.047965   -2.162550    0.002647
N      -0.081838   -2.933264   -0.273410
H       0.652560    1.960064   -0.261287
H      -0.962311    1.636739   -0.637245
H      -1.833441   -0.300272    0.243286
H      -2.072316   -2.485084    0.232693
H      -0.396788   -3.901210   -0.236059
