21

C      -0.049280    1.388394   -0.394763
O       0.918890    2.031891    0.433848
C       1.827248    1.084696    0.989065
C       1.518248   -0.236755    0.269316
C       0.017862   -0.105525   -0.049223
C      -0.884058   -0.482499    1.139182
C      -0.670935    0.341895    2.420527
C       0.741286    0.256307    3.011332
O       1.738747    1.056585    2.388004
H      -1.031569    1.832452   -0.196492
H       0.194427    1.562331   -1.453053
H       2.841135    1.451119    0.800430
H       2.100439   -0.279319   -0.656556
H       1.777461   -1.112835    0.867964
H      -0.261630   -0.717568   -0.911820
H      -1.932367   -0.391403    0.828765
H      -0.725969   -1.544025    1.373378
H      -0.918055    1.395850    2.255315
H      -1.365949   -0.029603    3.183487
H       0.725158    0.609697    4.046729
H       1.062825   -0.798348    3.037846
