17

C       0.309527    1.381009    0.188667
C       0.018887   -0.069000   -0.007795
N      -0.616458   -0.599344   -1.030775
C      -0.635433   -1.956680   -0.797299
C      -0.009631   -2.256051    0.382829
C       0.201867   -3.545913    1.123660
C       1.472419   -3.595534    1.845364
C       2.506690   -3.593923    2.457945
N       0.398021   -1.036353    0.882764
H       1.386481    1.580293    0.238671
H      -0.103077    1.934386   -0.655732
H      -0.140853    1.768337    1.109994
H      -1.100600   -2.641712   -1.490699
H      -0.613617   -3.719021    1.841721
H       0.147137   -4.372785    0.406435
H       3.427053   -3.620163    2.987380
H       0.955907   -0.914806    1.712826
