23

C      -0.046484    1.705131   -0.348536
C       0.097053    0.187127   -0.209745
O       0.870489   -0.145353    0.946702
C      -1.263376   -0.487645   -0.206213
C      -1.940910   -1.108912   -1.396547
C      -0.950939   -1.901759   -2.264845
C      -0.650435   -2.840814   -1.043222
C       0.777641   -3.142501   -0.599849
C      -1.572903   -1.966616   -0.176851
H       0.937253    2.181677   -0.343740
H      -0.559869    1.965550   -1.280210
H      -0.628904    2.116981    0.484633
H       0.694489   -0.181181   -1.048305
H       0.281950   -0.127565    1.708620
H      -1.979387    0.059232    0.410988
H      -2.920494   -0.782437   -1.725646
H      -1.433368   -2.431762   -3.088879
H      -0.106362   -1.338541   -2.674699
H      -1.164637   -3.790446   -1.227294
H       1.311500   -2.248775   -0.271403
H       0.772725   -3.841106    0.245014
H       1.343566   -3.615216   -1.410972
H      -2.233589   -2.358949    0.589154
