17

O       0.166889    0.039307    0.104431
C       0.044500    1.224233    0.068421
C      -1.065872    2.256577   -0.057681
C      -0.812071    2.988124    1.321669
C       0.783821    3.049506    1.414152
C       1.033696    2.443844    0.043117
C       1.920072    2.359108   -1.197581
O       0.708892    2.503535   -2.018035
C      -0.021948    3.055699   -0.887448
H      -2.101098    2.048036   -0.323030
H      -1.245777    3.991135    1.312373
H      -1.258957    2.430283    2.146512
H       1.142144    4.076881    1.512324
H       1.172662    2.463770    2.250620
H       2.602206    3.203251   -1.356121
H       2.430072    1.411209   -1.388195
H      -0.170639    4.135778   -0.977415
