15

O       0.096378    1.374883    0.076033
C       0.046177   -0.029057    0.032771
C      -1.397903   -0.538778   -0.048434
C      -1.539588   -2.082144   -0.040178
O      -2.390448   -2.356880    1.106009
C      -2.608613   -1.152218    1.677545
N      -2.135523   -0.096817    1.153165
C      -3.394025   -1.176670    2.880861
N      -4.025074   -1.196027    3.847770
H      -0.486390    1.651256    0.794005
H       0.598386   -0.343319   -0.860080
H       0.534310   -0.490909    0.907902
H      -1.871542   -0.082482   -0.924349
H      -2.030032   -2.487804   -0.926485
H      -0.589159   -2.601897    0.118596
