15

C      -0.062867    1.541451   -0.001179
C      -0.053235    0.013572   -0.010893
C      -1.337188   -0.568877   -0.359541
C      -2.398878   -1.053732   -0.647756
C       1.223280   -0.660197   -0.636615
O       2.003857   -0.203803    0.538420
C       0.742281   -0.674645    1.158934
C       0.944141   -1.913360    0.240783
O       1.038338   -3.092551    0.256529
H       0.922867    1.924617    0.265969
H      -0.341739    1.922522   -0.987475
H      -0.798947    1.908788    0.719248
H      -3.334285   -1.488853   -0.901328
H       1.659129   -0.525062   -1.624355
H       0.625488   -0.556110    2.234185
