15

C      -0.040524    1.582194   -0.065899
C       0.003819    0.053232   -0.042559
C      -1.295462   -0.536263    0.254471
N      -2.327300   -1.008618    0.476927
C       0.705537   -0.692225   -1.212599
N       2.068645   -0.172489   -1.249331
C       1.740309   -1.305901   -0.314236
C       1.109503   -0.641008    0.883042
O       1.247782   -0.696477    2.062544
H       0.935152    1.966892   -0.366427
H      -0.800976    1.940369   -0.765354
H      -0.283364    1.961834    0.929892
H       0.215626   -1.136018   -2.068577
H       2.551095   -0.592468   -2.043639
H       2.270611   -2.247073   -0.371741
