19

C      -0.069379    1.398249    0.020642
O       0.192998    0.020416   -0.107950
C       0.700301   -0.580446    1.067588
C      -0.329939   -0.859109    2.156160
C      -0.345540   -2.139589    2.538594
C      -1.202816   -2.790460    3.575401
C       0.634560   -2.914940    1.699145
O       0.275843   -2.911555    0.300272
C       1.248444   -1.972360    0.758959
H       0.828023    1.956873    0.332108
H      -0.384414    1.757595   -0.962022
H      -0.872410    1.609407    0.742375
H       1.520418    0.043540    1.468478
H      -0.991315   -0.089612    2.538650
H      -1.859492   -2.067272    4.065851
H      -1.826478   -3.575656    3.130322
H      -0.593517   -3.274883    4.348883
H       1.120701   -3.818477    2.056544
H       2.245381   -2.087059    0.343910
