23

C      -0.011047    1.511370   -0.201784
C       0.011577    0.030788    0.082477
O       1.278493   -0.639620    0.011371
C       0.584055   -0.612253    1.277814
C       1.283323    0.154942    2.385888
C       2.400379   -0.699022    3.012661
C       1.872762   -2.059297    3.490410
C       1.175358   -2.813238    2.348939
C       0.055306   -1.965774    1.723810
H       0.788618    2.043225    0.316576
H       0.109119    1.687149   -1.276163
H      -0.971924    1.942410    0.100501
H      -0.792239   -0.521063   -0.412981
H       1.695988    1.091398    2.003772
H       0.543147    0.414476    3.155678
H       3.183191   -0.856866    2.259930
H       2.863595   -0.153386    3.841992
H       2.692813   -2.660991    3.897932
H       1.160463   -1.904671    4.313587
H       1.909530   -3.052780    1.569321
H       0.770413   -3.765998    2.707153
H      -0.744469   -1.808982    2.461131
H      -0.388559   -2.483323    0.867573
