17

C      -0.064391    1.538404   -0.017094
C      -0.077794    0.027425    0.044050
C      -1.253378   -0.640029   -0.633800
O       1.186792   -0.603514   -0.165333
C       0.632153   -0.678404    1.168576
C       1.327685    0.076246    2.187143
C       1.895089    0.685106    3.053846
C       0.200773   -1.988453    1.602652
C      -0.153778   -3.068817    1.991164
H       0.803310    1.949307    0.499501
H      -0.034731    1.860486   -1.063464
H      -0.972513    1.948905    0.435771
H      -1.256926   -0.379100   -1.697477
H      -1.202254   -1.725069   -0.540569
H      -2.195610   -0.291889   -0.198736
H       2.402549    1.221644    3.817340
H      -0.461843   -4.026661    2.331666
