12

N      -0.049276    1.265816    0.352063
C      -0.045353    0.063573   -0.050492
O       1.135921   -0.550669   -0.455821
N       1.201264   -1.864673   -0.906194
C       0.106252   -2.531182   -0.943653
C      -1.193615   -2.008718   -0.548932
C      -1.254609   -0.733548   -0.112291
C      -2.340631   -2.852864   -0.636975
N      -3.254327   -3.558339   -0.718157
H       0.889371    1.667654    0.327499
H       0.205713   -3.550352   -1.301225
H      -2.172793   -0.255490    0.202964
