16

C       0.044866    1.487089   -0.082619
C       0.012905   -0.009709    0.045895
C      -1.317731   -0.772213    0.354193
C      -0.498904   -1.693459    1.262563
C       0.666371   -0.770659    1.236776
N       0.804822   -2.096485    0.640871
C       0.891036   -1.923270   -0.787714
O       1.201220   -2.756930   -1.577996
O       0.598528   -0.629455   -1.117225
H       1.072566    1.835390   -0.221810
H      -0.548804    1.814543   -0.940732
H      -0.363005    1.953219    0.818764
H      -2.000871   -0.161180    0.950003
H      -1.844782   -1.198841   -0.503588
H      -0.860656   -2.343150    2.048927
H       1.363617   -0.428559    1.991671
