17

O       0.158383    1.306333    0.154370
C       0.076980   -0.088618   -0.024379
C      -1.353986   -0.617402   -0.128927
C      -1.322112   -0.524628   -1.637233
C       0.257045   -0.577816   -1.492879
C       0.167551   -2.118145   -1.385907
C      -1.300881   -1.903336   -0.985949
C      -2.341215   -2.871844   -0.945782
C      -3.205620   -3.709326   -0.919649
H      -0.494680    1.715321   -0.426572
H       0.745982   -0.523749    0.724922
H      -2.186386   -0.444460    0.541286
H      -2.010652   -0.120680   -2.364801
H       0.983079   -0.087373   -2.137203
H       0.231583   -2.611088   -2.358906
H       0.834304   -2.616069   -0.672935
H      -3.970670   -4.444912   -0.894684
