14

O      -0.662896    0.699690    0.299309
C       0.386739    0.695507   -0.287336
C       1.467847    1.733497   -0.051778
O       2.779669    1.323383   -0.511181
C       2.908494    2.476688   -1.366326
C       2.361959    2.242310   -2.781061
O       1.018163    2.598483   -2.349914
C       1.476624    2.934378   -1.029936
H       0.644337   -0.064608   -1.054921
H       1.479516    2.024698    1.005513
H       3.841551    3.020362   -1.216587
H       2.727768    2.942398   -3.541803
H       2.433932    1.213379   -3.147010
H       1.131566    3.908486   -0.683017
