16

N       0.090101   -1.134803   -0.024853
C       0.020327    0.020847    0.004190
C      -0.023669    1.440223    0.059458
C      -1.125741    2.203065    0.058479
C      -0.806327    3.672878    0.101354
C       0.731607    3.722513    0.293234
C       1.216476    2.283924    0.087132
C       2.545953    1.784060    0.452361
O       2.201344    2.019650   -0.917234
H      -2.138020    1.819197    0.014477
H      -1.133278    4.159106   -0.826757
H      -1.344025    4.177061    0.911884
H       1.230290    4.387362   -0.414751
H       0.980251    4.063078    1.302174
H       3.271830    2.476393    0.878075
H       2.678702    0.738513    0.726366
