20

C      -0.196943    1.537571    0.019052
C       0.063470    0.026270    0.012386
C       0.952682   -0.425029   -1.182384
N       1.931462   -1.343899   -0.582885
C       2.826162   -2.109090   -1.265656
O       3.655177   -2.834736   -0.754073
C       1.841466   -1.267548    0.815637
C       0.828343   -0.498703    1.222573
C       0.417737   -0.220302    2.630724
H       0.742686    2.095665    0.094139
H      -0.705454    1.851119   -0.898812
H      -0.831234    1.826372    0.862369
H      -0.912016   -0.480931   -0.036358
H       0.385605   -0.921154   -1.974145
H       1.466874    0.438618   -1.623187
H       2.708709   -1.997128   -2.361604
H       2.560851   -1.827736    1.394371
H       1.064844   -0.739347    3.342810
H       0.454663    0.851141    2.864596
H      -0.615508   -0.543967    2.816547
