20

C      -0.333680    1.338844   -0.023199
N       0.096140   -0.043935   -0.036607
C       0.779536   -0.505936   -1.275870
C       1.859664   -1.441755   -0.703792
O       2.924236   -0.633010   -0.191320
C       2.382963    0.050666    0.961277
C       0.956506   -0.507151    1.069908
C       1.184693   -1.958350    0.590921
O       0.013766   -2.711878    0.434892
H       0.487590    2.066310   -0.152777
H      -1.052330    1.506051   -0.832184
H      -0.838082    1.561018    0.922885
H       0.075746   -1.009119   -1.949584
H       1.260847    0.315406   -1.823369
H       2.273315   -2.175484   -1.393935
H       2.991738   -0.178574    1.845449
H       2.409766    1.135188    0.798796
H       0.473437   -0.373774    2.039261
H       1.884861   -2.522434    1.210518
H      -0.674179   -2.066136    0.214006
