20

C      -0.537389    0.975249   -0.824998
O      -0.118519   -0.324128   -0.384021
C       0.851035   -0.900675   -1.115738
O       1.350005   -0.394646   -2.091324
C       1.275042   -2.237760   -0.512174
N       2.104161   -3.055284   -1.375056
C       1.378342   -3.870012   -2.318756
C       0.704415   -3.326554   -3.566826
C       1.969924   -4.153218   -3.664078
H       0.301630    1.675415   -0.811796
H      -0.937352    0.925483   -1.840739
H      -1.310602    1.291543   -0.125018
H       1.813858   -1.998329    0.415702
H       0.382767   -2.792689   -0.208752
H       2.765296   -2.458705   -1.861712
H       0.875118   -4.702449   -1.831395
H      -0.229739   -3.775717   -3.888361
H       0.791945   -2.263975   -3.757453
H       2.885360   -3.632704   -3.928906
H       1.912322   -5.163269   -4.053986
