21

C      -0.179640    1.526471   -0.006454
C       0.011840    0.016662    0.026718
C       1.143081   -0.626205   -0.830499
C       2.145216   -0.237611    0.283678
C       0.905795   -0.597620    1.166950
C       0.772222   -2.067377    0.814308
C       1.318336   -3.223394    1.584923
C      -0.187697   -3.044285    1.407777
O       0.943567   -2.036134   -0.609566
H       0.749745    2.085966    0.129304
H      -0.615035    1.837374   -0.962699
H      -0.870044    1.840916    0.783872
H      -0.952903   -0.483841   -0.104944
H       1.293514   -0.439774   -1.893308
H       3.037087   -0.860189    0.379998
H       2.407595    0.818959    0.303714
H       0.813826   -0.317496    2.216133
H       1.793151   -4.015567    1.016481
H       1.750200   -3.042752    2.564331
H      -0.778932   -2.743674    2.267189
H      -0.689443   -3.720394    0.724309
