20

C       0.066243    1.457869   -0.282640
C       0.010150    0.000609    0.193329
C      -1.375707   -0.603907    0.073014
O      -2.333667    0.034659    0.892551
C      -1.976302   -1.149308   -1.201656
C      -0.952638   -1.912883   -2.051034
C      -0.656100   -2.847587   -0.830528
C      -1.680906   -2.070627    0.001544
H       1.076808    1.865744   -0.188091
H      -0.233444    1.543589   -1.333028
H      -0.597058    2.095091    0.312259
H       0.732239   -0.594039   -0.373678
H       0.314280   -0.055792    1.245650
H      -2.558377    0.876354    0.482431
H      -2.936083   -0.781969   -1.547549
H      -1.416237   -2.456641   -2.877123
H      -0.115643   -1.332285   -2.452845
H      -0.971466   -3.875629   -1.021073
H       0.371091   -2.871141   -0.452473
H      -2.378769   -2.496209    0.712321
