19

C      -0.080039    1.549540    0.014648
C       0.044982    0.009970    0.000652
N      -1.203437   -0.744206    0.083566
C      -1.931826   -0.645275    1.323013
C      -2.956294    0.491987    1.619499
O      -3.962576   -0.473447    1.973159
C      -3.163465   -1.562941    1.470706
C       0.772854   -0.419357   -1.206861
N       1.338039   -0.725726   -2.166532
H       0.904775    2.020180   -0.054710
H      -0.685299    1.894442   -0.828616
H      -0.552835    1.876330    0.944388
H       0.655130   -0.294409    0.861555
H      -1.796651   -0.547206   -0.716417
H      -1.223031   -0.774507    2.146481
H      -2.737456    1.182046    2.442983
H      -3.234772    1.072614    0.726868
H      -3.535602   -1.942290    0.507811
H      -3.095333   -2.394305    2.179854
