19

C      -0.135053    1.560780   -0.010922
C      -0.031345    0.027291   -0.002133
C       1.149209   -0.495489   -0.892932
C       2.049017   -0.578554    0.380614
C       0.751325   -0.510136    1.246519
C       2.920506   -1.723805    0.534845
C       3.629150   -2.687672    0.660066
C      -1.328322   -0.579919   -0.247494
C      -2.401532   -1.084116   -0.450539
H       0.842275    2.018405    0.173969
H      -0.502055    1.917035   -0.977886
H      -0.826017    1.905110    0.764084
H       0.940590   -1.486512   -1.297422
H       1.483569    0.163793   -1.697057
H       2.630455    0.341869    0.495048
H       0.772626    0.137623    2.125735
H       0.413679   -1.505907    1.535816
H       4.256641   -3.536850    0.771093
H      -3.347202   -1.532542   -0.629503
