17

C       0.081666    1.341600    0.093493
O      -0.090014   -0.049034   -0.056698
C       0.663245   -0.583774   -1.116391
C       0.364132   -2.084541   -1.186639
C       1.164450   -2.771353   -2.245461
N       0.651256   -3.135041   -3.392524
O       1.669621   -3.705109   -4.102826
N       2.835877   -3.699063   -3.392895
C       2.545308   -3.131421   -2.256565
H       1.129713    1.602053    0.309964
H      -0.229549    1.890484   -0.808793
H      -0.541782    1.657571    0.932876
H       0.399567   -0.103172   -2.073096
H       1.742192   -0.412472   -0.954932
H       0.579457   -2.527103   -0.208380
H      -0.699948   -2.228186   -1.387915
H       3.297139   -3.000411   -1.493498
