19

O      -0.042957    1.412652   -0.190655
C       0.036216    0.026363    0.112849
C      -1.360802   -0.546905   -0.030615
C      -2.013696   -0.633974   -1.448802
C      -2.232943   -2.137111   -1.248925
C      -0.927451   -2.826137   -1.023065
C      -1.544962   -2.071361    0.140292
C      -1.896240   -2.710628    1.361878
C      -2.192894   -3.224339    2.410116
H       0.840852    1.786160   -0.127947
H       0.734428   -0.486813   -0.566719
H       0.395423   -0.142629    1.140899
H      -2.024973   -0.013709    0.653920
H      -2.937063   -0.057401   -1.517361
H      -1.369966   -0.362257   -2.291457
H      -3.131799   -2.685527   -1.501382
H      -0.972926   -3.904844   -0.921661
H      -0.020668   -2.458234   -1.496413
H      -2.456377   -3.682598    3.330582
