16

C      -0.034625    1.579894   -0.093298
C       0.011851    0.091438   -0.021311
C       0.568373   -1.015864   -0.915804
C       1.378524   -1.625073    0.224489
C       0.328825   -0.947375    1.151414
O      -0.900222   -1.670267    0.872853
C      -0.887514   -1.031285   -0.406395
C       0.571250   -0.662449    2.542347
N       0.797161   -0.395471    3.644101
H       0.949964    2.023228    0.090143
H      -0.361286    1.897532   -1.089116
H      -0.735594    1.992840    0.639466
H       0.821336   -0.957420   -1.966309
H       1.449814   -2.712042    0.317864
H       2.360299   -1.157007    0.319767
H      -1.773098   -1.083929   -1.024710
