17

O       0.182406   -0.399676    0.438651
C      -0.047828    0.773826    0.250556
N       0.887426    1.715545   -0.073517
C       2.283994    1.412902   -0.218322
C       2.963693    1.740192   -1.589438
N       3.945360    2.534549   -0.849207
C       3.300727    2.387458    0.453287
C       5.027068    3.261928   -1.203837
O       5.690736    3.921622   -0.430605
H      -1.061001    1.214142    0.324702
H       0.576718    2.665841   -0.206984
H       2.409347    0.373786    0.080616
H       3.374810    0.883394   -2.132562
H       2.331114    2.326231   -2.268051
H       2.858922    3.317813    0.831295
H       3.941148    1.961771    1.230807
H       5.244502    3.181427   -2.288941
