18

C      -0.020112    1.423367   -0.046607
C      -0.008890   -0.030105    0.008249
C      -0.003056   -1.235027    0.045544
C       0.027613   -2.656232    0.118505
C       1.189971   -3.540228    0.558334
C       0.442887   -4.649364   -0.198999
C      -0.862388   -4.903191    0.580345
C      -1.217481   -3.505132    0.113693
N      -0.292424   -3.569076   -1.063561
H       0.908123    1.841336    0.358537
H      -0.118894    1.778190   -1.078612
H      -0.852696    1.841416    0.530191
H       2.106123   -3.243793    0.042740
H       1.385586   -3.672091    1.627550
H       0.977147   -5.453502   -0.699654
H      -1.488865   -5.646240    0.080182
H      -0.801657   -5.123528    1.651141
H      -2.195668   -3.045063    0.032123
