19

C       0.063010    1.535058   -0.079732
C      -0.099770    0.063789    0.116800
C      -1.397824   -0.761660    0.179074
C      -0.646440   -1.793937    1.096469
C      -0.517178   -3.239948    0.600870
C      -1.798307   -3.933311    0.543471
C      -2.869956   -4.477190    0.506574
C       0.608950   -0.914794    0.962421
O       0.900640   -0.810166   -0.439117
H       1.104152    1.829001    0.077556
H      -0.223280    1.824512   -1.097279
H      -0.570667    2.092308    0.617779
H      -2.215224   -0.256297    0.698412
H      -1.754238   -1.136122   -0.783594
H      -1.045809   -1.773651    2.114060
H      -0.054687   -3.223097   -0.392836
H       0.169723   -3.791268    1.256862
H      -3.808707   -4.971332    0.467330
H       1.441669   -0.798733    1.648496
