17

C      -0.122051    1.625029   -0.004586
C      -0.049664    0.104911   -0.001738
C       1.142103   -0.584578   -0.705732
C       2.092222   -0.376704    0.517555
O       2.504021   -1.772215    0.604633
C       1.099610   -1.831322    0.260416
C       0.397539   -3.125112    0.076384
O       0.914042   -4.205707    0.193466
C       0.685666   -0.602817    1.160034
H       0.845279    2.078400    0.236487
H      -0.430723    2.001043   -0.985803
H      -0.850494    1.984269    0.730103
H      -1.026009   -0.328438   -0.244824
H       1.425318   -0.609233   -1.758378
H       2.840336    0.390309    0.708063
H      -0.678737   -3.008972   -0.186401
H       0.451093   -0.648280    2.223890
