16

O      -0.398283    1.456646   -0.346414
C       0.042320    0.130957   -0.049081
C      -1.220490   -0.778253    0.124434
C      -1.397101   -1.671659   -1.159436
C      -0.063809   -1.466118   -1.779952
C       0.718699   -0.536538   -1.205936
N       1.902282   -0.407265   -1.920697
C       1.758065   -1.270792   -2.876185
O       0.576990   -1.966904   -2.869090
H       0.371955    1.961212   -0.629353
H       0.647865    0.140379    0.867852
H      -1.082843   -1.424150    0.994887
H      -2.091867   -0.147807    0.309709
H      -1.615727   -2.712554   -0.900878
H      -2.212365   -1.320168   -1.802494
H       2.447431   -1.516753   -3.668566
