14

O       0.027957    1.420706   -0.255907
C       0.038997    0.035876   -0.060461
C       0.024439   -0.470268    1.410097
O      -1.282564   -1.046007    1.253007
C      -1.402663   -0.595605   -0.116448
C      -2.499930    0.319847   -0.348644
C      -3.429198    1.053742   -0.549027
C       1.020867   -0.622791   -0.927828
N       1.818391   -1.120472   -1.600352
H       0.935458    1.746565   -0.252414
H       0.780363   -1.216267    1.675002
H       0.034351    0.358597    2.126903
H      -1.465521   -1.449330   -0.801050
H      -4.247016    1.708886   -0.724481
