18

C       0.399750    1.594600   -0.109586
C       0.084048    0.113622   -0.033158
N       0.990051   -0.777639   -0.832666
C       1.191884   -1.679038    0.321648
C       2.473478   -1.294034    1.111780
O       1.725620   -0.269821    1.839770
C       0.475862   -0.672788    1.245705
C       3.025567   -2.310360    1.990358
C       3.470064   -3.174588    2.698269
H       1.424782    1.777370    0.220601
H       0.293225    1.958459   -1.136488
H      -0.280804    2.169668    0.527923
H      -0.976921   -0.069294   -0.257279
H       0.541845   -1.218949   -1.626423
H       0.954434   -2.735623    0.202341
H       3.248808   -0.845055    0.482022
H      -0.291082   -0.885394    1.992800
H       3.871651   -3.929229    3.328684
