15

O      -0.040469    0.087298   -0.513259
C       0.129129    1.047167    0.199373
C       1.244317    2.009395    0.046917
C       2.100181    2.007843   -1.171986
N       2.696126    1.499114    0.056518
C       3.014888    2.637627    1.011601
C       2.659935    4.040344    0.599510
C       1.584176    3.104871    1.076409
H      -0.569743    1.277230    1.035016
H       1.876002    1.207669   -1.870645
H       2.435791    2.934475   -1.622770
H       3.718871    2.410185    1.800662
H       2.956103    4.775604    1.341876
H       2.715036    4.414354   -0.416229
H       0.965906    3.294378    1.944217
