21

C      -0.087190    1.449043    0.030710
C       0.039303   -0.044175   -0.024232
C       0.955588   -0.880808   -0.914202
C       0.111244   -2.102207   -0.462745
C       0.433828   -2.259185    1.051927
C      -0.295239   -0.930108    1.207876
O      -0.812857   -0.380944    2.366849
C      -1.061650   -1.100924   -0.075826
C      -2.518363   -1.047180   -0.396547
H       0.855836    1.917189    0.341339
H      -0.351533    1.868192   -0.946896
H      -0.858117    1.750782    0.746605
H       0.805543   -0.645698   -1.973296
H       2.031533   -0.903836   -0.697176
H       0.008457   -2.981222   -1.095614
H      -0.136840   -3.073370    1.508334
H       1.489975   -2.337707    1.339364
H      -0.115232    0.115501    2.809951
H      -2.993895   -0.210745    0.126250
H      -2.696210   -0.915575   -1.470301
H      -3.033174   -1.963603   -0.084574
