17

O      -0.095239    1.441415    0.003890
C      -0.016442    0.068210    0.000846
C       0.764417   -0.872892   -0.983431
O       1.636708   -1.330007    0.072337
C       0.668243   -0.882868    1.045262
C      -0.620648   -1.802123    1.027414
C      -0.444176   -2.910937   -0.034086
C      -0.519949   -1.791679   -1.096592
C      -1.254137   -0.861695   -0.062411
H       0.798358    1.802475    0.048882
H       1.299002   -0.595760   -1.893293
H       1.114212   -0.614911    2.004299
H      -1.078721   -2.011545    1.993865
H       0.463063   -3.517938    0.005942
H      -1.328215   -3.552329   -0.079150
H      -0.884455   -1.991397   -2.104047
H      -2.295096   -0.553656   -0.110245
