21

C       0.037969    1.563941    0.060135
C      -0.004917    0.027435   -0.030470
C      -1.362292   -0.508929   -0.028561
C      -2.492347   -0.928219   -0.045959
C      -3.860357   -1.434811   -0.007044
C      -3.903370   -2.988213    0.053743
C      -5.314394   -3.558448   -0.106392
C      -4.563877   -0.864135    1.226385
O      -5.645781   -0.341722    1.216263
H       1.073482    1.916744    0.054550
H      -0.486157    2.017471   -0.785289
H      -0.440483    1.912567    0.979278
H       0.511919   -0.301278   -0.941288
H       0.557798   -0.405871    0.806324
H      -4.425510   -1.094969   -0.883171
H      -3.246069   -3.368523   -0.734468
H      -3.461173   -3.313065    1.003627
H      -5.297312   -4.650310   -0.042001
H      -5.994416   -3.186416    0.665971
H      -5.741054   -3.286249   -1.077484
H      -3.981761   -0.993235    2.167058
