20

C       0.052689    1.599607   -0.106387
C       0.094201    0.082275   -0.130325
C       0.746524   -0.727476   -1.272808
C       1.186982   -1.715129   -0.122000
C       2.317350   -0.784706    0.109941
C       2.212604   -0.212000   -1.305020
C       3.081104   -0.953187   -2.306533
O       2.674931   -0.549889   -3.608391
N       1.013746   -0.603274    0.849410
H       1.038018    2.048704   -0.250370
H      -0.612964    1.976564   -0.890707
H      -0.332318    1.944017    0.858869
H      -0.905617   -0.315129    0.077588
H       0.234152   -0.959939   -2.203821
H       1.014355   -2.757952    0.108179
H       3.195737   -0.909499    0.730478
H       2.354643    0.864333   -1.444512
H       4.141678   -0.710507   -2.130674
H       2.965041   -2.040223   -2.168640
H       3.231218   -1.000619   -4.250279
