17

C      -0.431276    1.313648    0.077021
N       0.363485    0.099454   -0.059228
C       0.829802   -0.471232    1.164025
C      -0.114598   -1.061561    2.206657
C       0.731136   -1.992748    1.362661
C       0.134479   -2.781983    0.326990
C      -0.364257   -3.431445   -0.554678
C       2.035926    0.147982    1.680444
N       2.985224    0.649869    2.109873
H       0.181293    2.104442    0.522028
H      -0.737112    1.649176   -0.917006
H      -1.333665    1.194043    0.699305
H      -0.093197   -0.604442   -0.626539
H       0.139207   -0.967382    3.255868
H      -1.171094   -1.006728    1.972145
H       1.584762   -2.445975    1.856007
H      -0.800013   -4.020436   -1.323854
