19

C      -0.064830    1.546823   -0.060646
C      -0.036423    0.070308    0.354404
C      -1.385880   -0.590714    0.166996
C      -1.808315   -1.167993   -1.140872
C      -1.560227   -2.114355    0.023136
C      -0.371391   -3.004016   -0.027700
O       0.608372   -2.796933   -0.720705
C      -0.442581   -4.177158    0.831075
C      -0.511114   -5.147594    1.540284
H       0.912812    2.013973    0.091524
H      -0.328030    1.653688   -1.118068
H      -0.799380    2.113179    0.522917
H       0.717905   -0.467355   -0.225534
H       0.261319   -0.008169    1.407826
H      -2.181836   -0.144516    0.759668
H      -2.832530   -1.053370   -1.477026
H      -1.060108   -1.213019   -1.925646
H      -2.420290   -2.537737    0.528702
H      -0.553220   -6.009149    2.161389
