18

C      -0.021257    1.539586    0.019321
C       0.002414    0.039824    0.000901
C       0.650745   -0.853766   -1.130380
C       1.273199   -1.766074   -0.031540
C       0.670282   -0.880200    1.099254
C      -0.579533   -1.809206    1.059206
C      -1.270051   -0.897814    0.000943
C      -0.598319   -1.783819   -1.090344
N       0.046644   -2.682741   -0.031457
H       0.994725    1.952503    0.015686
H      -0.546300    1.939054   -0.856731
H      -0.530985    1.917249    0.913901
H       1.150147   -0.470038   -2.019417
H       2.266640   -2.215407   -0.045601
H       1.185194   -0.517698    1.988335
H      -1.057626   -2.292904    1.911549
H      -2.302302   -0.549470    0.014138
H      -1.091252   -2.247377   -1.945395
