17

C      -0.171251    1.805952    0.709736
N      -0.014363    0.388882    0.452338
C      -0.975216   -0.364975    0.115121
N      -0.774959   -1.737181   -0.055973
C       0.424457   -2.394397    0.145919
N       0.537012   -3.622021   -0.169736
C      -2.423895    0.063333   -0.122789
N      -3.358381   -0.842098    0.307784
O      -2.713319    1.107021   -0.668504
H       0.295068    2.367758   -0.108566
H      -1.203964    2.152798    0.805851
H       0.385510    2.053920    1.620200
H      -1.487424   -2.272160   -0.531395
H       1.183448   -1.747148    0.587625
H       1.470859   -3.957899    0.057337
H      -3.110988   -1.558407    0.971125
H      -4.322224   -0.545337    0.275277
