12

N      -0.045980    1.399381    0.165707
C       0.047392    0.021068    0.043592
N      -1.034075   -0.760812    0.009694
N      -0.609699   -2.061447   -0.024803
C       0.742155   -2.093087   -0.023660
C       1.202420   -0.800469    0.021286
O       2.536991   -0.824934    0.018455
N       2.871689   -2.258166   -0.031582
N       1.809217   -2.938471   -0.052803
H       0.645631    1.905530   -0.370216
H      -0.980374    1.735006   -0.028818
H      -1.285967   -2.802732   -0.023541
