17

C      -0.054445    1.436776   -0.141773
C       0.011158   -0.102579    0.064138
C       0.711515   -0.414325    1.318985
C       1.323215   -0.653390    2.324644
C      -1.352157   -0.648499    0.100279
C      -2.476973   -1.067962    0.133866
C       0.832990   -0.703177   -1.095029
C       0.512824   -1.969974   -1.753063
O       0.222945   -0.707678   -2.374266
H       0.956436    1.853332   -0.150535
H      -0.542011    1.650129   -1.095446
H      -0.620476    1.903774    0.666069
H       1.847440   -0.872275    3.222080
H      -3.470610   -1.441860    0.166579
H       1.870238   -0.365820   -1.079669
H       1.309835   -2.545256   -2.220718
H      -0.359224   -2.532750   -1.430488
