21

C      -0.148255    1.522649   -0.205843
C      -0.164902   -0.006720   -0.238237
C       0.980255   -0.598794   -1.068562
C       0.936217   -2.146349   -1.157670
C       0.515473   -2.455187   -2.623847
C       0.171580   -1.049806   -3.176102
O       0.948494   -0.139566   -2.423849
C       1.666431   -3.055348   -3.398304
O       1.649976   -4.128327   -3.943654
H       0.769787    1.896960    0.260978
H      -0.193711    1.928376   -1.219872
H      -0.996109    1.916434    0.362331
H      -0.088654   -0.409758    0.779858
H      -1.123111   -0.365768   -0.636709
H       1.933861   -0.245842   -0.659950
H       1.914440   -2.579561   -0.928391
H       0.221623   -2.572723   -0.449927
H      -0.330032   -3.142964   -2.685452
H       0.431430   -0.915798   -4.230998
H      -0.906591   -0.859675   -3.066954
H       2.570990   -2.402728   -3.433116
