19

C       0.348542    1.126029    0.358318
O      -0.339750    0.070388   -0.299152
C       0.398271   -0.530310   -1.294538
C       1.389233   -1.656931   -0.938759
C       1.570613   -2.040490    0.427308
N       1.729401   -2.349991    1.531814
C       0.057340   -1.936651   -1.661788
C      -1.050871   -2.651043   -0.914672
N       0.250229   -2.238310   -3.062522
H       1.249002    0.759969    0.866038
H       0.631102    1.916253   -0.351742
H      -0.340555    1.537464    1.097766
H       0.731530    0.124759   -2.100051
H       2.275257   -1.726321   -1.559460
H      -1.123080   -2.322273    0.122804
H      -2.012022   -2.451117   -1.400945
H      -0.881111   -3.733071   -0.925866
H       0.394858   -3.237613   -3.184746
H      -0.590882   -2.001411   -3.583173
