17

O       0.026600   -0.039128   -0.144231
C      -0.022304    1.156708   -0.017644
C      -1.308242    1.973382    0.029546
N      -1.333124    3.008111   -1.013230
C      -0.158560    3.880158   -0.977614
C       1.174114    3.122841   -1.086236
C       1.271158    2.018421    0.004573
C       1.448146    2.605028    1.333083
N       1.568771    3.076259    2.382263
H      -2.160388    1.300475   -0.087072
H      -1.387207    2.465213    1.008101
H      -1.403238    2.563271   -1.924011
H      -0.241832    4.607380   -1.791007
H      -0.185800    4.446325   -0.037990
H       1.239204    2.630088   -2.063568
H       2.028602    3.802973   -1.004571
H       2.109928    1.344287   -0.191736
