19

C      -0.010543    1.461626    0.065323
C      -0.014738   -0.043473   -0.034450
C       0.811464   -0.671890   -1.179014
O       1.074182   -1.989950   -0.674580
C       0.522396   -1.976821    0.644946
O       0.658468   -0.652661    1.092874
C      -1.006560   -2.168966    0.506037
O      -1.662106   -2.404454    1.739318
C      -1.391052   -0.755590    0.003343
H       1.013157    1.843945    0.109629
H      -0.507146    1.902911   -0.804467
H      -0.541865    1.786543    0.964037
H       0.263643   -0.730161   -2.125793
H       1.756582   -0.138844   -1.338253
H       1.061380   -2.676158    1.285736
H      -1.224445   -2.957353   -0.224658
H      -1.446420   -3.296790    2.029374
H      -2.043959   -0.288517    0.743691
H      -1.896111   -0.760284   -0.964940
