21

C       0.263693    1.413353    0.283731
C      -0.179064    0.004087   -0.131316
C       0.596509   -0.556736   -1.315002
C       0.403862    0.176755   -2.634511
C       1.996824   -1.115788   -1.147916
O       2.166003   -1.740753    0.131094
C       1.155064   -2.732917   -0.184771
C       0.842359   -2.041455   -1.508896
O       0.437454   -2.689676   -2.657749
H       1.328255    1.423741    0.539110
H       0.099988    2.149257   -0.509528
H      -0.294452    1.749875    1.162873
H      -0.061473   -0.657453    0.730767
H      -1.248502    0.007210   -0.379571
H       0.667091    1.233889   -2.536092
H       1.018181   -0.254654   -3.428602
H      -0.638901    0.114060   -2.963237
H       2.882754   -0.760939   -1.663325
H       1.616288   -3.720288   -0.324839
H       0.369660   -2.802337    0.576208
H       1.095531   -3.357663   -2.881962
