19

C      -0.007259    1.479584   -0.034140
C      -0.024468   -0.011115    0.013872
O       0.850320   -0.724006   -0.870980
C      -0.024427   -1.889366   -0.777622
C       0.567096   -2.796662    0.289335
O       0.560219   -1.984196    1.471170
C      -0.307906   -0.902159    1.220214
C      -1.113690   -1.069918   -0.038779
C      -2.598494   -1.078240   -0.240280
H       0.981386    1.858593    0.247227
H      -0.240232    1.844793   -1.039722
H      -0.740344    1.894204    0.664403
H      -0.237558   -2.336670   -1.750181
H      -0.036926   -3.706288    0.436784
H       1.599339   -3.079069    0.062359
H      -0.738049   -0.471891    2.117955
H      -3.080885   -0.317390    0.381756
H      -2.867154   -0.873716   -1.282786
H      -3.032533   -2.047127    0.034449
