17

C      -0.078170    1.540103   -0.167815
C      -0.035249    0.036215    0.038143
O       0.637975   -0.579102   -1.069287
C       1.374676   -1.651095   -0.636950
N       2.043224   -2.437791   -1.362255
N       1.255016   -1.743322    0.747044
C       0.741807   -0.502037    1.274793
C       1.828324    0.420670    1.820295
O       2.994469    0.127773    1.850557
H       0.928568    1.958532   -0.254496
H      -0.620395    1.766996   -1.089006
H      -0.597309    2.031025    0.661298
H      -1.056329   -0.364175    0.076935
H       1.952609   -2.182400   -2.342711
H       2.066785   -2.137162    1.202518
H       0.035303   -0.660841    2.103268
H       1.458009    1.380147    2.244480
