17

C      -0.011830    1.409508   -0.027883
C      -0.005336   -0.081362    0.009609
O       0.997581   -0.788141   -0.737872
C       0.209775   -1.988814   -0.520409
C       0.337711   -2.234088    1.005218
O       0.619467   -3.184247    1.678717
C      -0.338888   -0.925772    1.252187
C      -1.052603   -1.119554   -0.149185
C      -2.506857   -1.187131   -0.477846
H       0.898471    1.807759    0.430862
H      -0.063384    1.763827   -1.061600
H      -0.872380    1.803687    0.519966
H       0.319057   -2.759329   -1.279110
H      -0.759118   -0.518236    2.161649
H      -3.050789   -0.367136    0.001324
H      -2.669739   -1.113999   -1.558399
H      -2.949339   -2.126957   -0.131296
