20

C      -0.928491    1.165132    0.405749
C      -0.011239    0.063190   -0.039419
C      -0.128627   -0.559517   -1.213517
C       0.809577   -1.668496   -1.590180
O       0.676122   -2.839949   -0.763504
C       0.924674   -2.753480    0.575171
C       0.930447   -4.144824    1.152291
N       1.128318   -1.753006    1.324747
C       1.094013   -0.351263    0.922126
H      -0.361052    2.073707    0.645805
H      -1.666324    1.414991   -0.361235
H      -1.462616    0.883203    1.321835
H      -0.921193   -0.296981   -1.908770
H       0.613874   -2.032957   -2.600397
H       1.856099   -1.336121   -1.553752
H      -0.026210   -4.638012    0.951339
H       1.709550   -4.749754    0.677253
H       1.102069   -4.095766    2.226362
H       2.071339   -0.063611    0.502461
H       0.997013    0.230925    1.844874
