17

C      -0.135911    1.645258    0.056718
C       0.398257    0.215764    0.082282
N       1.350186    0.014066   -1.004659
C       2.094651   -0.989859   -0.971367
O       2.138145   -1.976272   -0.004389
C       3.121852   -2.865604   -0.390322
C       3.662021   -2.466973   -1.537481
N       4.666992   -3.009205   -2.323106
O       3.024580   -1.279434   -1.927504
H       0.678458    2.363926    0.189039
H      -0.616681    1.857608   -0.902585
H      -0.867772    1.800247    0.856076
H       0.856507    0.003052    1.059156
H      -0.438079   -0.490919   -0.022965
H       3.311002   -3.712674    0.244117
H       5.452203   -2.373155   -2.427864
H       4.334943   -3.248606   -3.252905
