19

O       0.180094    1.439726    0.078744
C       0.069906    0.026307   -0.024419
C       0.836660   -0.658384    1.123668
C       0.146768   -0.406950    2.444351
C      -1.169685   -0.213465    2.543018
C      -2.062367   -0.336426    1.352956
O      -2.723620    0.898368    0.941296
C      -2.431835    0.601320   -0.448380
C      -1.393050   -0.458389   -0.034969
H      -0.315842    1.715265    0.860060
H       0.543043   -0.219292   -0.980743
H       0.927647   -1.736940    0.931405
H       1.855661   -0.259993    1.150424
H       0.768270   -0.362624    3.335244
H      -1.637770    0.001321    3.500095
H      -2.821091   -1.115141    1.527358
H      -3.309265    0.185944   -0.961747
H      -2.059946    1.478464   -0.982080
H      -1.463926   -1.438583   -0.512161
