21

C      -0.308873    1.553714    0.032866
C       0.868781    2.557390   -0.023727
C       1.870937    2.201431   -1.082116
C       2.916993    1.397024   -0.894152
C       3.370554    0.780129    0.414789
C       2.450600   -0.133897    1.226378
O       1.451996    0.439873    2.079365
C       1.019693   -0.451101    1.040717
C       0.082774    0.068127   -0.044862
H      -0.870413    1.735347    0.955657
H      -0.998363    1.750151   -0.797536
H       0.464719    3.560066   -0.204333
H       1.350679    2.570319    0.956509
H       1.685905    2.578657   -2.086605
H       3.551628    1.172004   -1.748333
H       4.269533    0.189329    0.209585
H       3.700247    1.571459    1.103923
H       3.026840   -0.903632    1.746481
H       0.722192   -1.428369    1.429134
H      -0.840356   -0.519937    0.013066
H       0.519985   -0.149182   -1.024760
