19

C      -0.228052    1.504595    0.134969
C      -0.018981   -0.002982   -0.012912
C      -1.332117   -0.772137    0.136550
C       0.846150   -0.423314   -1.250052
C       1.931920   -0.949010   -0.269449
N       1.075394   -0.533095    0.836668
C       1.274404   -0.628198    2.166866
O       2.264821   -1.107739    2.684659
H       0.720124    2.041795    0.043000
H      -0.909130    1.870905   -0.640675
H      -0.666281    1.749701    1.108057
H      -2.041947   -0.464966   -0.638992
H      -1.166920   -1.849414    0.045617
H      -1.795368   -0.578771    1.109707
H       0.387313   -1.189181   -1.877009
H       1.162897    0.410577   -1.878108
H       2.119857   -2.026940   -0.297524
H       2.894558   -0.428894   -0.298526
H       0.423755   -0.215329    2.748003
