21

C       0.100390    1.539953   -0.073289
C       0.086707    0.015297    0.031012
O       0.700852   -0.463591   -1.158660
C       0.929061   -1.863907   -1.136094
C       2.002882   -2.183369   -0.099766
O       3.296562   -1.781022   -0.551149
C       1.636318   -1.522948    1.205582
C       0.758553   -0.518881    1.285654
C       0.357233    0.100106    2.597562
H       1.125113    1.919765   -0.017887
H      -0.326377    1.836843   -1.034465
H      -0.488501    1.999039    0.724114
H      -0.969063   -0.321689    0.045579
H      -0.002819   -2.409324   -0.913511
H       1.272450   -2.141087   -2.136261
H       2.074554   -3.269293    0.032395
H       3.234193   -0.831045   -0.707954
H       2.134011   -1.885041    2.102051
H       0.802058   -0.440059    3.436990
H       0.666826    1.149329    2.666926
H      -0.732931    0.086152    2.724999
