19

C      -0.080394    1.489755    0.003996
C      -0.070701   -0.000984   -0.050948
C      -0.081455   -0.822793   -1.107893
C       0.033552   -2.263274   -0.589259
C       1.389751   -2.418870    0.104248
C       1.392949   -1.606460    1.164931
C       0.039329   -0.893842    1.201550
C      -0.844146   -2.106797    0.712729
O      -2.207230   -1.880530    0.538504
H       0.846722    1.870320    0.452792
H      -0.178943    1.931095   -0.991857
H      -0.901833    1.863671    0.628069
H      -0.095268   -0.545399   -2.154244
H      -0.250007   -3.051563   -1.286195
H       2.177492   -3.078953   -0.233251
H       2.182233   -1.456212    1.889150
H      -0.238066   -0.423050    2.145425
H      -0.755002   -2.968672    1.377240
H      -2.288002   -1.141964   -0.080766
