22

C       0.154152    1.567100   -0.072493
C       0.020570    0.042355    0.043239
C       0.715412   -0.466274    1.307893
O       2.094775   -0.131683    1.233173
C      -1.437707   -0.440740    0.024621
C      -2.180767   -0.149723   -1.281871
C      -3.515684   -0.891620   -1.362446
N      -4.451144   -0.299809   -2.164240
O      -3.735670   -1.931594   -0.772347
H       1.200501    1.864361    0.024964
H      -0.216583    1.936997   -1.033135
H      -0.415382    2.067626    0.720933
H       0.547473   -0.415636   -0.806471
H       0.244209   -0.009416    2.194690
H       0.578749   -1.556191    1.388316
H       2.514600   -0.401517    2.054646
H      -1.479375   -1.521986    0.190479
H      -1.986657    0.015386    0.859525
H      -2.341921    0.924167   -1.425447
H      -1.575343   -0.487319   -2.135360
H      -4.243552    0.511649   -2.718993
H      -5.308081   -0.798504   -2.340216
