16

N       0.571632    1.414510   -0.055207
C       0.299496    0.066609   -0.012353
N      -0.898451   -0.435758    0.152733
O      -0.715388   -1.805034    0.207713
N       0.594850   -2.131854    0.061528
C       1.250460   -1.011330   -0.071233
C       2.740225   -0.991173   -0.225450
C       3.252329   -0.337468   -1.518468
O       3.085890    1.081018   -1.543506
H       1.333432    1.640668   -0.686517
H      -0.250619    1.986809   -0.186891
H       3.195709   -0.474111    0.630772
H       3.089724   -2.027843   -0.191667
H       4.310142   -0.596119   -1.658872
H       2.699771   -0.717863   -2.382177
H       3.710578    1.462790   -0.917453
