18

C       0.013458    1.528344    0.033382
C      -0.050757    0.004906    0.000750
O       0.766170   -0.581441    1.020479
C      -1.483735   -0.520607    0.106450
N      -1.465535   -1.969190    0.110022
C      -2.627882   -2.679706   -0.071183
N      -2.497092   -4.045344    0.170802
O      -3.683456   -2.167012   -0.396446
H       1.051942    1.864804   -0.021521
H      -0.538860    1.964030   -0.805103
H      -0.426504    1.918631    0.959734
H       0.384710   -0.364676   -0.934757
H       0.509174   -0.185235    1.861456
H      -1.955123   -0.115211    1.018077
H      -2.090325   -0.181539   -0.737070
H      -0.719883   -2.374105    0.656711
H      -1.599602   -4.464493   -0.023828
H      -3.277086   -4.570753   -0.194766
