18

C      -0.332786    1.543949   -0.127645
C       0.045799    0.072844   -0.098035
C       1.097926   -0.573620   -1.068572
C       1.563664   -1.339917    0.192255
C       2.241282   -0.268492    0.953860
C       2.841919    0.762137    0.019324
C       2.178084    0.463810   -1.336981
O       2.443302    0.980648   -2.389918
N       0.765522   -0.458023    1.115233
H      -0.904189    1.768890   -1.034258
H      -0.965078    1.769505    0.737182
H       0.526176    2.217547   -0.098236
H      -0.868301   -0.525036   -0.166353
H       0.729689   -1.085696   -1.954401
H       1.660368   -2.410571    0.324983
H       2.763476   -0.509388    1.872712
H       2.689306    1.806303    0.307266
H       3.924651    0.610531   -0.064231
