18

O      -0.007580   -0.064637    0.174741
C       0.120844    1.149429   -0.052024
O       1.094425    1.883991   -0.285335
C      -1.239860    1.935669    0.018861
C      -2.226042    1.559883    1.149885
C      -1.368773    1.654736    2.416669
C      -0.612319    2.992397    2.100814
C      -1.238946    3.305420    0.737726
N      -2.743037    3.030358    1.054940
H      -3.336281    3.173373    0.239848
H      -3.156881    3.460530    1.885621
H      -1.732096    1.983231   -0.958576
H      -2.995984    0.797191    1.068757
H      -1.961891    1.697466    3.334834
H      -0.708528    0.789050    2.446250
H      -0.786522    3.775894    2.844069
H       0.458460    2.852668    1.958964
H      -1.039537    4.256872    0.251857
