22

C       0.004552    1.402452   -0.042122
O      -0.019150   -0.001515    0.081640
C      -1.309985   -0.587727    0.038524
C      -1.820528   -0.750675   -1.394959
C      -1.172592   -1.946333    0.742111
N      -0.863930   -1.848171    2.153801
C      -1.941112   -1.605436    3.096231
C       0.429953   -1.861267    2.592295
O       0.784054   -1.702736    3.742235
H       1.043795    1.716835    0.079246
H      -0.350816    1.746175   -1.024504
H      -0.604778    1.887419    0.735760
H      -2.015292    0.041845    0.606289
H      -1.875800    0.213407   -1.907461
H      -1.151854   -1.401904   -1.967092
H      -2.823988   -1.188423   -1.402730
H      -2.096740   -2.522402    0.616335
H      -0.369541   -2.499790    0.243027
H      -2.683910   -2.410800    3.049215
H      -1.503583   -1.568285    4.093977
H      -2.450589   -0.654779    2.896520
H       1.137365   -2.051410    1.764629
