19

C      -0.202213    1.262664    0.475167
C       0.115825   -0.136175    0.003587
C       1.538382   -0.606361   -0.117984
N       0.659881   -1.126803    0.913595
C       0.812977   -0.935931    2.282419
O      -0.068778   -0.529483    3.007460
N       2.093926   -1.280792    2.740331
C       2.608697   -2.641493    2.662854
C       2.248147   -2.017915    3.975731
H       0.601184    1.667501    1.096679
H      -0.337988    1.923181   -0.387309
H      -1.117959    1.271541    1.071572
H      -0.603321   -0.554620   -0.699228
H       1.825315   -1.307563   -0.897519
H       2.320591    0.082036    0.192840
H       1.944799   -3.405802    2.268067
H       3.649938   -2.738200    2.367980
H       3.030550   -1.664043    4.640546
H       1.336506   -2.348344    4.465326
