17

O      -0.949497    0.894349    0.560073
C      -0.251691   -0.192891    0.149726
C      -0.104914   -0.852476   -1.040995
N       0.757737   -1.920170   -0.874975
C       1.115876   -1.893760    0.381036
N       0.520871   -0.859574    1.073483
C       0.735611   -0.478510    2.437468
C      -0.414619   -0.533819    3.406524
C       0.698410   -1.545053    3.500572
H      -1.429067    1.245709   -0.196540
H      -0.565636   -0.629639   -1.991297
H       1.790624   -2.578325    0.871581
H       1.451070    0.328861    2.564122
H      -0.477684    0.249572    4.152410
H      -1.368403   -0.870777    3.019491
H       0.481584   -2.558234    3.183721
H       1.412604   -1.467276    4.311857
