18

O      -1.735442   -1.572313    2.047131
N      -0.742854   -1.440865    1.078792
C      -1.119880   -0.716194    0.080675
C      -0.143608   -0.542830   -0.948727
C       0.632248   -0.357390   -1.850759
C      -2.459480   -0.054772   -0.091380
C      -2.507227    1.472557   -0.409448
C      -3.682972    1.194411   -1.382762
C      -3.251304   -0.295470   -1.414702
H      -1.301867   -2.127484    2.704268
H       1.333587   -0.207834   -2.634245
H      -3.079600   -0.285405    0.773280
H      -2.677656    2.147185    0.432486
H      -1.608197    1.791153   -0.943624
H      -4.653364    1.325953   -0.895832
H      -3.693419    1.737473   -2.330150
H      -2.572912   -0.501076   -2.246930
H      -4.028534   -1.062573   -1.392500
