16

O       0.006295    0.015399   -0.091869
C      -0.028232    1.200427    0.032888
C      -1.101073    2.297298   -0.022669
C      -1.379756    2.848618    1.387075
C      -0.094462    3.473793    1.987968
C       1.184299    2.845916    1.436915
O       2.208020    2.718960    2.058469
C       1.019229    2.350849    0.001596
N      -0.054330    3.183381   -0.662562
H      -2.008002    2.111878   -0.601590
H      -2.165336    3.606980    1.330509
H      -1.755807    2.037079    2.018781
H      -0.049156    4.531039    1.703252
H      -0.071996    3.427319    3.078120
H       1.971237    2.217693   -0.511203
H      -0.027613    2.980086   -1.660025
