20

C      -0.022314    1.468117    0.084124
C       0.241979   -0.025696    0.129425
O       0.310384   -0.504236   -1.214004
C       0.553609   -1.873297   -1.305268
C       0.749689   -2.394238   -2.751680
C       0.793466   -1.376411   -3.867132
O       2.094171   -2.874944   -2.380492
C       1.988345   -2.357429   -1.110091
N       2.816014   -2.310269   -0.168176
H       0.788186    1.985912   -0.436417
H      -0.958858    1.680453   -0.439600
H      -0.093026    1.868925    1.099555
H       1.181344   -0.248847    0.650615
H      -0.567582   -0.551283    0.662308
H      -0.172610   -2.452618   -0.715513
H       0.123261   -3.253687   -3.006869
H       1.404487   -0.516658   -3.585957
H       1.204818   -1.830491   -4.773123
H      -0.217947   -1.020227   -4.085260
H       3.710242   -2.727485   -0.435203
