21

C      -0.034701    1.495016   -0.351166
C      -0.028919    0.006062   -0.096891
C       1.170026   -0.781336   -0.411149
O       0.857429   -0.437083    0.951506
C      -1.384565   -0.713757   -0.052055
O      -1.201084   -2.072157    0.311761
C      -2.368383   -0.021248    0.874368
C      -3.372014    0.971535    0.336210
C      -3.824611   -0.389097    0.798366
H       0.986754    1.883111   -0.359090
H      -0.497955    1.717604   -1.318533
H      -0.600725    2.024596    0.419180
H       1.070832   -1.836178   -0.650804
H       2.044770   -0.277464   -0.818903
H      -1.805429   -0.727040   -1.066646
H      -0.601867   -2.055913    1.071297
H      -1.970946    0.180950    1.866517
H      -3.617587    1.836262    0.942797
H      -3.369191    1.169591   -0.731105
H      -4.117388   -1.113683    0.045844
H      -4.385216   -0.460565    1.723479
