16

O       0.029660    0.018485    0.091856
C       0.002272    1.216938    0.037035
C      -1.237267    2.138330    0.054663
C      -0.594037    3.553121    0.020190
C       0.618728    3.315571   -0.910748
C       1.202177    2.192081   -0.036404
N       1.224446    2.876356    1.267375
C       0.096125    3.676899    1.389226
O      -0.271670    4.259861    2.379231
H      -1.836263    1.944537   -0.841492
H      -1.869317    1.953928    0.926664
H      -1.268945    4.374091   -0.208447
H       0.337171    2.976878   -1.911770
H       1.290937    4.173343   -0.982504
H       2.157142    1.747369   -0.307411
H       1.632587    2.455546    2.089578
