17

C      -0.080755    1.524187    0.025304
C       0.054962    0.034264    0.013774
C       0.691278   -0.872369   -1.075936
C      -0.601007   -1.720225   -1.074389
C       0.048496   -2.630814   -0.005583
C      -0.589882   -1.735923    1.083003
C       0.702410   -0.888085    1.083559
N       1.324891   -1.774342   -0.005935
N      -1.224055   -0.833154    0.014059
H       0.902406    2.007977    0.022125
H      -0.637455    1.867049   -0.853700
H      -0.625534    1.854544    0.916485
H       1.293081   -0.564553   -1.932183
H      -1.210701   -2.017326   -1.927876
H       0.141139   -3.716960   -0.013962
H      -1.190763   -2.045459    1.938318
H       1.313032   -0.592718    1.937945
