15

N       0.030458    1.385506    0.121003
C      -0.018453   -0.002046    0.048306
C      -1.227058   -0.708059    0.045531
C      -1.191539   -2.096395    0.037816
C       0.028611   -2.774489    0.032807
N       0.150993   -4.170727    0.091134
C       1.153765   -1.946423    0.029392
F       2.353163   -2.550098    0.006795
N       1.160608   -0.639048    0.033709
H       0.925086    1.761007   -0.159554
H      -0.748871    1.870919   -0.297088
H      -2.173679   -0.179817    0.057330
H      -2.117242   -2.664141    0.040262
H      -0.578008   -4.662921   -0.407251
H       1.063250   -4.490044   -0.204689
