24

C       0.974232   -0.597298   -0.872838
C      -0.016827    0.052151    0.103004
C      -0.113673    1.562328   -0.150490
C      -1.411992   -0.595292    0.034693
C      -1.476806   -2.049505    0.521395
O      -0.969900   -2.188832    1.850416
C      -2.878132   -2.613503    0.405878
C      -3.238167   -3.504267   -0.726561
N      -3.110036   -4.044789    0.635609
H       1.954602   -0.114034   -0.809083
H       1.121538   -1.660914   -0.663538
H       0.625352   -0.502636   -1.908691
H       0.359802   -0.104255    1.121207
H      -0.782546    2.047996    0.568225
H       0.868407    2.039937   -0.069714
H      -0.500267    1.769787   -1.155871
H      -2.111820   -0.003237    0.643284
H      -1.794507   -0.551934   -0.994659
H      -0.806995   -2.673414   -0.083418
H      -1.577563   -1.735905    2.446347
H      -3.657826   -1.976682    0.826426
H      -4.248083   -3.500568   -1.126680
H      -2.465069   -3.730775   -1.457369
H      -2.213740   -4.513789    0.748902
