16

C      -0.022525    1.527349   -0.000026
C      -0.001599    0.023165    0.006433
C      -1.140570   -0.706345   -0.099074
F      -2.325119   -0.107265   -0.212850
C      -1.192451   -2.163310   -0.099618
N      -2.300429   -2.802983   -0.202459
N       0.082953   -2.735012    0.022677
C       1.254666   -2.031300    0.131361
C       1.249032   -0.680563    0.126789
H       0.578040    1.918037   -0.829371
H      -1.038085    1.910829   -0.097411
H       0.411770    1.923267    0.925048
H      -2.152403   -3.812927   -0.185455
H       0.118001   -3.742716    0.029004
H       2.153599   -2.628142    0.218140
H       2.175938   -0.129332    0.212780
