13

C      -0.038182    1.481824   -0.067602
C       0.004581   -0.007545    0.022485
N      -0.039960   -0.788194   -1.043170
N       0.021511   -2.037309   -0.537471
C      -0.002635   -3.151968   -1.403424
O       0.048130   -4.287708   -1.037924
N       0.103729   -2.111843    0.799232
C       0.094570   -0.846724    1.171456
H       0.858772    1.928415    0.373896
H      -0.104265    1.792679   -1.111581
H      -0.902115    1.883783    0.471849
H      -0.073516   -2.800492   -2.445165
H       0.150561   -0.575809    2.215014
