21

C      -0.170358    1.584281    0.060731
C       0.000312    0.095207   -0.049813
C      -0.067487   -0.564200   -1.209257
C       0.144168   -2.050131   -1.274521
C       1.573010   -2.546672   -0.823309
C       0.946036   -3.146591    0.434796
C       0.060761   -2.158985    1.167807
C       0.263700   -0.646688    1.244460
C      -0.455263   -2.820034   -0.074099
H       0.713108    2.054928    0.512397
H      -0.336032    2.045058   -0.917023
H      -1.020207    1.840373    0.707460
H      -0.245274   -0.021212   -2.134499
H      -0.144164   -2.457211   -2.244389
H       1.959276   -3.318816   -1.494111
H       2.338552   -1.775026   -0.693028
H       1.292621   -4.044233    0.934147
H      -0.337082   -2.589622    2.083281
H       1.279028   -0.413560    1.599243
H      -0.403869   -0.240786    2.017483
H      -1.352217   -3.426611   -0.103131
