18

C       0.148574    1.358025    0.005983
O       0.375609   -0.030392    0.003718
C       0.398384   -0.580033   -1.298470
C       0.555012   -2.074037   -1.182562
C       1.258882   -2.841932   -2.251484
N       1.836880   -2.724942   -0.921083
C       3.038626   -1.919418   -0.760523
H       0.936302    1.904212   -0.537794
H      -0.820674    1.615007   -0.451006
H       0.146036    1.688365    1.047520
H      -0.545139   -0.355350   -1.826267
H       1.210033   -0.131769   -1.892939
H      -0.275403   -2.548120   -0.661603
H       0.913176   -3.829476   -2.546104
H       1.712441   -2.263222   -3.057236
H       3.156724   -1.116018   -1.504837
H       3.034634   -1.465610    0.234452
H       3.911018   -2.575733   -0.841273
