18

C       0.224174    1.436895   -0.448758
N       0.057530    0.024830   -0.138946
C       0.562768   -0.327931    1.181846
C       2.014444   -0.134021    1.292198
N       3.153847    0.024783    1.396046
C      -1.255197   -0.546209   -0.338628
C      -2.527302   -0.004949    0.293790
C      -2.310343    0.073012   -1.202690
H       1.269090    1.712846   -0.284697
H      -0.002597    1.614708   -1.501349
H      -0.401035    2.108502    0.167453
H       0.079574    0.236740    2.001625
H       0.350130   -1.386596    1.367129
H      -1.198245   -1.631386   -0.390917
H      -3.250747   -0.709442    0.688681
H      -2.469010    0.929309    0.841976
H      -2.141267    1.055653   -1.625266
H      -2.875763   -0.588380   -1.849519
