19

C      -0.135218    1.482723    0.013893
C       1.210593    0.776872   -0.013164
C      -0.062654   -0.010909    0.004914
C      -0.419154   -1.018599    1.065310
C      -1.746166   -1.760234    0.726005
C      -2.668557   -1.152488   -0.277124
C      -1.974229   -0.791263   -1.361230
C      -0.499527   -1.026131   -1.101610
C      -0.464583   -2.116899    0.026359
H      -0.433161    1.978741    0.932311
H      -0.458975    1.990878   -0.888900
H       1.782452    0.810676   -0.935784
H       1.820779    0.798658    0.884840
H      -0.028335   -1.045101    2.076133
H      -2.118027   -2.401679    1.517203
H      -3.726586   -0.998690   -0.105227
H      -2.355734   -0.257003   -2.222482
H       0.157572   -1.117936   -1.966026
H       0.005963   -3.091951    0.001754
