15

F      -0.288751    0.265148   -0.624972
C       0.035932    1.427237   -0.035540
F       1.346974    1.393449    0.226912
F      -0.173415    2.391576   -0.950900
C      -0.755989    1.774759    1.218568
C      -2.174554    1.247012    1.531259
C      -1.477643   -0.076963    1.924848
N      -0.515892    0.981688    2.515586
C      -1.819769    1.673251    2.974050
H      -0.592268    2.846191    1.368042
H      -3.099119    1.409651    0.968979
H      -1.960163   -0.681268    2.696703
H      -1.038763   -0.701614    1.152732
H      -1.699729    2.737900    3.190714
H      -2.312253    1.147345    3.794484
