13

C      -0.020200    1.544551    0.006150
C       0.000556    0.042032   -0.013844
C      -0.051593   -0.692936   -1.148912
O      -0.032919   -2.022991   -1.154852
C       0.044920   -2.766913    0.066223
O       0.055459   -3.954784   -0.037675
N       0.099818   -2.039329    1.238387
C       0.078236   -0.742109    1.182970
H       0.881190    1.950772    0.477859
H      -0.077298    1.948984   -1.007830
H      -0.880760    1.925407    0.566926
H      -0.112706   -0.275145   -2.150151
H       0.124324   -0.221985    2.142417
