19

O       0.526099    0.970562   -0.735321
C       0.220532   -0.145684    0.065616
C       0.027033    0.040063    1.597647
C      -1.196233   -0.911835    1.497136
O      -2.329732   -0.703538    2.298344
C      -1.245595   -0.616866   -0.025368
C      -2.316622    0.332077   -0.600097
C      -2.595548   -0.825344   -1.578535
O      -1.595423   -1.654806   -0.946609
H       1.463552    1.166225   -0.644159
H       0.882733   -0.995077   -0.152079
H       0.841840   -0.234296    2.269552
H      -0.289112    1.067761    1.808484
H      -0.905785   -1.955689    1.649935
H      -2.543747    0.234991    2.275771
H      -3.137169    0.554146    0.085160
H      -1.929072    1.250239   -1.039514
H      -3.592980   -1.275001   -1.519682
H      -2.351492   -0.623859   -2.627946
