21

C       0.176756    0.740908    0.950670
C       0.260197   -0.642116    0.287573
C       0.521425   -0.616278   -1.211425
C       1.721603    0.198872   -1.687763
O       1.457799    1.585815   -1.861423
C       0.283622   -1.847791   -2.088009
C      -1.000908   -2.562977   -1.687758
O      -1.754451   -1.320828   -1.727157
C      -0.600615   -0.626197   -2.212520
H       1.138136    1.268579    0.930348
H      -0.577831    1.369671    0.465674
H      -0.102678    0.646962    2.004508
H       1.047942   -1.229339    0.777813
H      -0.683261   -1.162665    0.470437
H       2.565182    0.037017   -0.998178
H       2.044885   -0.147352   -2.674612
H       1.177335    1.945175   -1.015291
H       1.039577   -2.244747   -2.753002
H      -1.364116   -3.250319   -2.460041
H      -1.046273   -3.054023   -0.708799
H      -0.742218    0.116334   -2.988925
