17

C       0.007859    1.456785   -0.053781
N      -0.001592    0.005209   -0.118419
C      -1.091753   -0.611414   -0.041529
N      -1.211611   -2.000064   -0.092761
C      -2.508098   -2.434426    0.014826
O      -2.916163   -3.569102    0.020453
C      -3.327643   -1.146026    0.137463
C      -4.160677   -1.090864    1.408489
O      -2.347382   -0.091375    0.105081
H       0.614319    1.776117    0.801465
H       0.493514    1.853282   -0.952454
H      -0.985588    1.910465    0.035159
H      -0.407371   -2.600106   -0.182451
H      -3.967353   -1.044443   -0.747471
H      -3.521197   -1.160462    2.292901
H      -4.726007   -0.157256    1.455533
H      -4.858041   -1.932593    1.413554
