19

C       0.110259    1.584413   -0.004261
C      -0.013316    0.048137   -0.033907
C      -1.475156   -0.460333    0.007936
C      -2.201355   -0.124302    1.313173
C      -3.596972   -0.734344    1.371765
O      -4.183853   -0.347177    2.603459
C       0.660699   -0.486526   -1.222982
N       1.180288   -0.905158   -2.166897
H       1.156963    1.890899   -0.069851
H      -0.428949    2.031089   -0.844776
H      -0.304173    1.981734    0.924831
H       0.515215   -0.360632    0.837678
H      -2.017167   -0.040200   -0.848327
H      -1.465337   -1.546943   -0.135940
H      -1.626466   -0.492059    2.172375
H      -2.301016    0.958747    1.441035
H      -4.193207   -0.380116    0.514704
H      -3.527508   -1.831255    1.287527
H      -5.065088   -0.728864    2.651736
