14

C      -0.003964    1.392680    0.028165
O       0.002227   -0.017461    0.000626
C       0.665125   -0.582172    1.106229
C       0.604922   -2.065611    0.961832
C       0.051070   -2.838059   -0.006744
O       0.251096   -4.119308    0.300381
N       0.970823   -4.128904    1.529805
N       1.155415   -2.933215    1.877886
H       1.017193    1.803230    0.012529
H      -0.536544    1.731394   -0.862906
H      -0.518741    1.778709    0.921213
H       1.715503   -0.247881    1.154524
H       0.192966   -0.273834    2.054544
H      -0.483193   -2.613002   -0.913219
