20

C      -0.124157    1.495101   -0.212513
C       0.048953    0.008768    0.033702
C       1.306979   -0.777774   -0.195438
C       2.551029    0.010253    0.234607
C       1.983562    0.046895    1.698517
N       1.860775    1.294279    2.424107
C       2.655683    1.619982    3.479764
O       3.562091    0.939587    3.911818
C       0.710444   -0.651483    1.221314
H       0.785924    2.067067   -0.014649
H      -0.394854    1.680441   -1.257739
H      -0.926292    1.907683    0.410684
H      -0.831457   -0.560091   -0.261842
H       1.326879   -1.655385   -0.829414
H       3.478611   -0.561481    0.171939
H       2.707282    0.976456   -0.253555
H       2.580589   -0.607252    2.334205
H       1.124888    1.934018    2.173098
H       2.377097    2.600624    3.915912
H       0.180864   -1.396428    1.804571
