19

C      -0.071614    1.580203    0.006080
C       0.026278    0.055994    0.057114
O       0.695279   -0.421061   -1.132043
C       2.049354   -0.515045   -1.060825
N       2.818540   -0.397473   -0.065846
C       2.222876   -0.169246    1.248562
C       0.739706   -0.479076    1.281346
C      -0.013588   -0.642446    2.545079
N       0.393694   -1.826973    1.767463
H       0.918611    2.042290    0.046070
H      -0.557097    1.892561   -0.922118
H      -0.660038    1.950533    0.850734
H      -0.979833   -0.375031   -0.001496
H       2.449629   -0.731672   -2.049819
H       2.738992   -0.803533    1.975491
H       2.412991    0.871730    1.544565
H       0.494947   -0.521368    3.498094
H      -1.064023   -0.358737    2.559204
H      -0.403221   -2.197566    1.253565
