14

O      -0.037569    1.296576   -0.068873
C       1.017561    2.186223    0.032120
N       2.163182    2.140072   -0.472475
C       2.801091    1.093354   -1.122279
C       3.225909   -0.059247   -0.563792
N       3.061550   -0.456978    0.747934
C       1.920265   -0.683930    1.280582
N       0.716270   -0.843924    0.640219
C      -0.015437   -0.061979   -0.016721
H       0.661403    3.081406    0.534997
H       3.204975    1.371471   -2.091643
H       3.923824   -0.664103   -1.137490
H       1.896869   -0.967926    2.333277
H      -0.876649   -0.444515   -0.560974
