22

C      -0.349141    1.629221   -1.150268
C      -0.473476    0.103745   -1.137750
C      -1.505550   -0.402962   -0.120015
C      -1.575316   -1.915629   -0.076178
C      -2.742656   -2.755132    0.272365
C      -4.065179   -2.222665   -0.251080
O      -4.547871   -1.069614    0.407631
C      -3.385735   -2.116304   -1.645233
N      -2.133057   -2.782174   -1.138340
H       0.391104    1.963917   -1.883723
H      -1.305006    2.102493   -1.401840
H      -0.042738    2.010300   -0.169619
H      -0.745353   -0.254544   -2.138722
H       0.504068   -0.344467   -0.916362
H      -1.226260   -0.058539    0.884911
H      -2.486949    0.034828   -0.314678
H      -0.639362   -2.360251    0.264274
H      -2.655221   -3.602672    0.945487
H      -4.825512   -3.013757   -0.252224
H      -5.427731   -0.874698    0.069320
H      -3.847954   -2.740349   -2.413078
H      -3.242356   -1.107060   -2.040678
