21

C      -0.095423    1.654925   -0.042138
C      -0.116179    0.124920   -0.087083
C       0.632198   -0.506420   -1.249801
C       0.961147    0.248741   -2.466851
O       1.973249   -0.023866   -1.477124
C       0.544661   -2.031501   -1.364286
O       1.461372   -2.511214   -2.342864
C       0.822773   -2.767773   -0.043380
O       0.870287   -4.159169   -0.263736
H       0.930095    2.028317   -0.112402
H      -0.680106    2.096098   -0.854907
H      -0.522075    2.010801    0.899571
H       0.317306   -0.263512    0.842043
H      -1.151903   -0.238241   -0.113384
H       1.084342   -0.285935   -3.404783
H       0.681372    1.294910   -2.551221
H      -0.454359   -2.313821   -1.718563
H       2.267171   -1.987975   -2.210893
H       1.767967   -2.389744    0.385580
H       0.028036   -2.581963    0.685638
H       1.370355   -4.266270   -1.084022
