18

O      -0.005628    0.013329    0.044220
C      -0.005737    1.212663    0.009033
C      -1.245468    2.140924   -0.034986
N      -0.740302    3.520518   -0.041751
C       0.573750    3.390767   -0.712315
C       1.202717    2.173501   -0.007226
C       1.445627    2.554673    1.440523
C       0.629930    3.418973    2.049239
C      -0.542089    4.038987    1.322011
H      -1.791473    1.929951   -0.963833
H      -1.925527    1.945586    0.797655
H       0.418462    3.209679   -1.781820
H       1.159449    4.304612   -0.592613
H       2.075331    1.724473   -0.481138
H       2.267774    2.080794    1.966481
H       0.801974    3.722374    3.078873
H      -0.411571    5.129159    1.266857
H      -1.470996    3.881044    1.884841
