15

O      -0.092412    1.370530   -0.120490
C      -0.202868   -0.012050   -0.131297
C      -0.466321   -0.803049    1.113914
O      -1.273006   -0.010122    1.995285
C      -2.388198   -0.040803    1.053174
C      -1.522756   -0.750204    0.020921
O      -1.991915   -1.753245   -0.820149
C      -2.184271   -1.416758   -2.127385
O      -2.612902   -2.193514   -2.920985
H      -0.263744    1.649084    0.789774
H       0.478064   -0.488294   -0.832952
H       0.144324   -1.589929    1.540134
H      -3.195940   -0.669772    1.438663
H      -2.757605    0.960240    0.808434
H      -1.895856   -0.371966   -2.340170
