21

C      -0.079962    1.223169   -0.617396
C       0.172130   -0.120010    0.049051
C       1.497013   -0.797364   -0.230233
C       1.245847   -0.166642    1.115852
C      -1.085135   -0.911345    0.304009
C      -2.008210   -1.383707   -0.799777
O      -1.491348   -1.280993   -2.107354
C      -1.308214   -2.402281    0.068297
O      -0.363267   -3.220931   -0.548129
H       0.849823    1.793486   -0.713250
H      -0.503814    1.086932   -1.616702
H      -0.781700    1.829543   -0.031564
H       1.528998   -1.877017   -0.274589
H       2.173058   -0.292336   -0.912729
H       1.755822    0.759046    1.362330
H       1.096354   -0.832800    1.959022
H      -1.641676   -0.541107    1.164812
H      -3.077623   -1.200527   -0.718275
H      -2.013366   -1.860072   -2.674167
H      -1.867051   -2.951276    0.819680
H      -0.214328   -2.835263   -1.423726
