25

C       0.045733    1.525124   -0.315706
C       0.028620    0.045922    0.096400
C      -1.360741   -0.528805    0.166618
C      -2.110772   -1.011095   -1.050702
C      -1.861203   -1.979918    0.078302
C      -1.114776   -3.269506   -0.122643
C      -2.897237   -1.705989    1.190931
C      -2.710208   -2.496027    2.480651
C      -2.383362   -0.228346    1.271211
H       1.067333    1.916860   -0.347611
H      -0.400739    1.659721   -1.306292
H      -0.524499    2.138272    0.390348
H       0.628072   -0.536783   -0.614951
H       0.520493   -0.064183    1.072660
H      -3.116730   -0.652523   -1.264562
H      -1.502532   -1.170181   -1.937280
H      -0.282841   -3.137517   -0.822559
H      -0.699633   -3.654594    0.815082
H      -1.768088   -4.047315   -0.538112
H      -3.936861   -1.804315    0.852315
H      -1.680641   -2.418361    2.848908
H      -3.372703   -2.115303    3.265700
H      -2.935449   -3.559073    2.340977
H      -1.915828   -0.018729    2.238847
H      -3.110293    0.563676    1.059109
