14

C      -0.484909    1.368799    0.114911
C       0.221910    0.036472    0.007719
C       0.939148   -0.320490   -1.314747
C       2.204411   -0.442943   -0.427907
O       1.491270    0.023559    0.728372
C       2.730111   -1.803944   -0.259994
N       3.142575   -2.877123   -0.142741
H       0.147016    2.178028   -0.263549
H      -1.416271    1.351177   -0.461498
H      -0.733960    1.584459    1.158358
H      -0.421098   -0.772590    0.376759
H       0.617830   -1.231238   -1.818254
H       0.995088    0.500429   -2.031218
H       3.036961    0.220931   -0.686776
