19

C       0.147247   -1.462333   -0.324610
C       0.091677   -0.271442   -0.171089
C       0.033375    1.184079   -0.029194
C       1.428236    1.792439    0.083685
C       1.597370    3.155031    0.702700
C       2.088446    1.927092    1.430090
C      -0.742201    1.791525   -1.193740
C      -2.194232    1.977093   -1.140950
O      -1.300255    3.083095   -0.967587
H       0.193610   -2.516615   -0.442788
H      -0.522859    1.432507    0.885167
H       2.077543    1.547386   -0.752092
H       2.329495    3.825889    0.267700
H       0.706756    3.650182    1.072478
H       1.533432    1.594917    2.301469
H       3.156906    1.755495    1.495401
H      -0.271087    1.665944   -2.169522
H      -2.775280    1.985161   -2.061417
H      -2.740565    1.674185   -0.248655
