16

O      -0.372716    0.429102    0.826187
C       0.200666    0.839475   -0.149179
C       1.405368    1.762668   -0.102625
C       1.202487    3.015254   -0.946167
C       2.432941    3.900537   -1.241582
C       2.115370    3.595284   -2.729248
O       1.046819    2.704352   -2.360959
C       1.651700    4.735022   -3.527912
N       1.299455    5.642183   -4.150903
H      -0.123854    0.558714   -1.173995
H       1.601668    2.031668    0.940037
H       2.271095    1.211885   -0.495569
H       0.333642    3.580663   -0.587436
H       2.360052    4.945862   -0.945439
H       3.383421    3.484420   -0.905588
H       2.901791    3.074596   -3.286620
