21

C      -0.043144    1.576387    0.074352
C      -0.003867    0.047572    0.137760
C      -1.376442   -0.592473   -0.110196
C      -1.372670   -2.120880   -0.019445
C      -1.166482   -2.771072    1.365047
O      -2.454385   -3.423064    1.304995
C      -2.775753   -2.800286    0.054037
C      -0.535357   -2.722179   -1.126518
O       0.346540   -3.528833   -0.982543
H       0.945923    2.006533    0.257413
H      -0.381383    1.924270   -0.907989
H      -0.729146    1.986156    0.823911
H       0.718341   -0.332588   -0.596228
H       0.371179   -0.270118    1.118995
H      -2.101728   -0.203322    0.615492
H      -1.747745   -0.294116   -1.101437
H      -0.341742   -3.487660    1.419066
H      -1.105529   -2.064335    2.202021
H      -3.610384   -2.090858    0.137550
H      -3.007929   -3.533161   -0.729778
H      -0.818442   -2.359534   -2.143834
