18

C      -0.036994    1.447180   -0.094474
N       0.011028    0.020941    0.182509
C      -1.256561   -0.704969    0.126506
C      -1.168787   -2.002049    0.906523
C      -0.919976   -3.310016    0.183063
C       0.196254   -2.615723    0.900877
O       1.184707   -1.985631    0.124585
C       1.210971   -0.620126    0.000985
O       2.250960   -0.074267   -0.273199
H       0.964586    1.857524    0.019621
H      -0.383936    1.653391   -1.116948
H      -0.720589    1.935757    0.607942
H      -2.023561   -0.056590    0.560410
H      -1.552465   -0.885743   -0.918333
H      -1.725775   -2.036223    1.835768
H      -1.316732   -4.221749    0.614344
H      -0.894252   -3.285586   -0.901247
H       0.608722   -3.049895    1.806028
