14

C       0.008513    1.433457    0.008878
O       0.000466    0.011660    0.005025
C      -1.198006   -0.584824    0.012660
C      -1.368202   -1.952976    0.010262
O      -2.712823   -2.241362    0.019721
C      -3.367259   -1.068245    0.028091
C      -2.507751   -0.010689    0.024375
C      -0.446376   -3.011289    0.000250
N       0.329385   -3.873472   -0.008139
H       1.057578    1.729679    0.001594
H      -0.489953    1.835008   -0.881480
H      -0.476130    1.830074    0.909026
H      -4.443310   -1.132179    0.036210
H      -2.774054    1.032834    0.029316
