19

O      -0.187992    1.409962   -0.342944
C      -0.074155    0.096314    0.179336
C      -1.380637   -0.658279    0.056864
C      -1.703424   -1.479249   -1.149559
C      -1.483187   -2.179415    0.190195
C      -0.276221   -3.073543    0.387672
O      -0.524910   -4.392443   -0.077999
C      -2.724714   -2.658331    0.873130
O      -3.812341   -2.148451    0.742990
H      -0.473059    1.334938   -1.259971
H       0.744320   -0.455353   -0.307141
H       0.198366    0.223241    1.232273
H      -2.226317   -0.137201    0.497504
H      -2.721053   -1.466377   -1.523222
H      -0.927066   -1.616069   -1.898325
H       0.614685   -2.641099   -0.087639
H      -0.051733   -3.183458    1.454798
H      -0.761823   -4.332976   -1.009953
H      -2.577602   -3.537252    1.535427
