19

C       0.077798    1.374322   -0.347104
C       0.127468   -0.096012    0.007471
C       1.461212   -0.798107   -0.035155
C       0.789001   -0.524516    1.310460
C       1.342643    0.438248    2.218228
N       1.790132    1.220206    2.944719
N      -1.120879   -0.748021   -0.315299
C      -1.286815   -1.272176   -1.669516
C      -1.201852   -2.190199   -0.500535
H       0.974390    1.899327   -0.010729
H      -0.006464    1.495897   -1.431966
H      -0.794481    1.841918    0.117362
H       1.533049   -1.837531   -0.333557
H       2.332761   -0.202980   -0.282037
H       0.339242   -1.383864    1.797096
H      -2.239794   -1.061619   -2.145325
H      -0.423605   -1.247035   -2.332370
H      -0.303840   -2.797189   -0.412934
H      -2.096440   -2.653416   -0.094728
