19

C       0.071043    1.354349   -0.229950
C      -0.166387   -0.127093    0.099122
C      -1.656179   -0.397042    0.357962
O       0.158832   -0.855906   -1.116465
C       1.093444   -1.820950   -1.245054
O       1.252296   -2.338479   -2.317902
C       1.914483   -2.221870   -0.030161
C       1.596184   -1.485016    1.231262
C       0.660803   -0.546655    1.279466
H       1.127659    1.533868   -0.444474
H      -0.517941    1.641606   -1.105063
H      -0.223787    1.985954    0.613404
H      -2.245264   -0.110128   -0.517196
H      -1.823088   -1.458154    0.560109
H      -2.005686    0.179355    1.219767
H       1.782814   -3.304206    0.095094
H       2.968927   -2.099823   -0.309037
H       2.163587   -1.746178    2.120283
H       0.441533   -0.020274    2.204082
