15

C      -0.020155    1.387585   -0.094868
O      -0.008862   -0.029983   -0.000623
C      -1.271037   -0.602922    0.007899
O      -1.930398   -0.469678   -1.265055
C      -2.169498   -1.715409   -1.796483
N      -2.725784   -1.943019   -2.909003
C      -1.681576   -2.717682   -0.836113
C      -1.163455   -2.090760    0.216339
H       1.017404    1.716437   -0.015228
H      -0.436225    1.720043   -1.052390
H      -0.604344    1.834512    0.722927
H      -1.915397   -0.097671    0.746767
H      -2.958065   -1.067296   -3.380384
H      -1.757314   -3.778141   -1.024927
H      -0.702254   -2.515387    1.096707
