16

C      -0.084293   -1.179382   -0.370596
C      -0.053675   -0.005296   -0.117628
C      -0.005946    1.424703    0.145148
O      -0.379115    1.698311    1.527797
C       0.655893    2.405319    2.051101
N       1.662776    2.674262    1.331733
C       1.395347    2.086406    0.039058
C       2.535058    1.515768   -0.755584
C       1.865770    2.793607   -1.201973
H      -0.116108   -2.219633   -0.583827
H      -0.738083    1.939875   -0.487722
H       0.521735    2.690166    3.087921
H       3.518881    1.584828   -0.306716
H       2.344657    0.608890   -1.318525
H       1.223272    2.757635   -2.076562
H       2.395383    3.728354   -1.059504
