20

C      -0.285339    1.448692    0.399442
C       0.275872    0.098348   -0.065066
C       0.903795   -0.658055    1.083856
N       0.037193   -1.457832    1.941676
C       1.063585   -2.158464    1.138696
C       0.539489   -3.119900    0.097134
O      -0.058549   -4.244496    0.719604
C       2.254267   -2.629344    1.912759
O       2.537402   -2.212204    3.011638
H       0.501153    2.081015    0.825472
H      -0.736139    1.992943   -0.435389
H      -1.052818    1.303738    1.165756
H      -0.528388   -0.497231   -0.505651
H       1.030008    0.254650   -0.846456
H       1.704006   -0.118942    1.591831
H       0.385982   -1.418504    2.900575
H      -0.158293   -2.615577   -0.582173
H       1.366990   -3.508401   -0.508041
H      -0.738565   -3.893587    1.307539
H       2.877184   -3.397316    1.408468
