19

C      -0.001774    1.548819    0.020449
C       0.038051    0.047525    0.001613
C      -0.848736   -0.828388    0.836210
C       0.641025   -0.959111    1.004549
C       1.302685   -1.750844   -0.140541
O       2.667800   -1.903473    0.074663
C       0.488877   -2.857726   -0.854917
O      -0.167653   -1.868964   -1.689430
C       0.643864   -0.790166   -1.156297
H       0.955942    1.982428   -0.289317
H      -0.775727    1.933369   -0.655055
H      -0.224883    1.921879    1.025509
H      -1.346393   -0.317311    1.655005
H      -1.443353   -1.608541    0.373522
H       1.141114   -0.778360    1.948595
H       3.069516   -2.241638   -0.733369
H       1.113428   -3.536077   -1.454899
H      -0.218580   -3.448630   -0.262766
H       1.189117   -0.236382   -1.925713
