20

C       0.012075    1.583564    0.150228
C       1.283127    0.794523   -0.042919
C       2.350253    0.700285    1.040280
C       2.796262   -0.727226    1.281032
C       1.997997   -1.716646    1.689094
C       0.548124   -1.626038    2.006060
N       0.016726   -0.364430    2.578807
C      -0.427842   -0.771020    1.244627
C      -0.042356    0.072720    0.069435
H      -0.146325    2.017598    1.131905
H      -0.384794    2.163498   -0.675991
H       1.690876    0.798307   -1.050282
H       3.207441    1.314406    0.745040
H       1.966056    1.116688    1.974416
H       3.842077   -0.961587    1.096566
H       2.423414   -2.710521    1.808368
H       0.131280   -2.544133    2.415223
H      -0.694938   -0.570659    3.273232
H      -1.434582   -1.181362    1.168904
H      -0.417742   -0.335857   -0.865371
