19

O      -0.068725    0.068652   -0.175363
C      -0.062569    1.267194   -0.032977
C      -1.241145    2.166566    0.123147
C      -0.722825    3.414712    0.845488
C       0.764582    3.202552    1.127859
C       1.172232    2.179729    0.048547
C       1.298001    2.885209   -1.322708
C       0.002627    3.676576   -1.660934
C      -1.079166    3.507588   -0.601797
H      -2.225666    1.745252    0.278950
H      -1.342908    3.909965    1.583780
H       1.342786    4.131788    1.067876
H       0.904325    2.787047    2.131720
H       2.071894    1.609723    0.282428
H       2.163644    3.555059   -1.296409
H       1.501937    2.138365   -2.095841
H       0.225641    4.744731   -1.763396
H      -0.395047    3.356318   -2.629672
H      -2.022469    3.996782   -0.827024
