16

N       0.031502    1.445947   -0.075369
C       0.031017    0.045529   -0.037268
C      -1.021816   -0.826703   -0.181887
O      -0.607290   -2.144510   -0.170836
C       0.734578   -2.086915   -0.021400
C       1.166173   -0.816009    0.068097
O       2.505099   -0.675336    0.296731
C       3.030893   -2.033604    0.168528
C       1.839338   -3.059027    0.211749
H       0.764925    1.844407    0.496581
H      -0.857738    1.849719    0.188323
H      -2.076572   -0.670751   -0.332532
H       3.548104   -2.095086   -0.794782
H       3.754764   -2.181823    0.971832
H       1.766634   -3.572301    1.180208
H       1.961186   -3.827429   -0.558647
