19

C       0.005354   -1.207959   -0.278631
C      -0.030714   -0.033250   -0.025280
C      -0.033755    1.394373    0.275658
C       1.360545    2.022455    0.159528
C       1.952876    2.298194   -1.237843
C       1.113466    3.612516   -1.436484
C       2.362853    4.442872   -1.788649
C       2.842508    3.470306   -0.695048
C       1.487401    3.559747    0.089426
H       0.023388   -2.246049   -0.500000
H      -0.731653    1.907932   -0.397639
H      -0.419856    1.551651    1.291802
H       2.052445    1.535018    0.856549
H       2.230941    1.588177   -2.017993
H       0.109829    3.685075   -1.857141
H       2.780631    4.302426   -2.790904
H       2.337913    5.506267   -1.528635
H       3.830849    3.362539   -0.245133
H       1.229443    4.308908    0.840897
