19

C       0.363098    1.533841   -0.388410
N       0.079102    0.150984   -0.023571
C       1.185486   -0.795181   -0.044162
C       0.582607   -0.367020    1.250475
C       1.305506    0.480091    2.255018
O       0.383577    1.383897    2.821210
C       2.344723   -0.155385    3.140916
C       2.748066    0.898419    2.123704
H       1.385324    1.865427   -0.155356
H       0.203916    1.647017   -1.465638
H      -0.334701    2.189685    0.138591
H       0.969166   -1.781635   -0.447322
H       2.174240   -0.414772   -0.295003
H      -0.125357   -1.042926    1.729399
H       0.770003    1.766349    3.615106
H       2.350728    0.119837    4.191842
H       2.626532   -1.185698    2.952204
H       3.334824    0.587048    1.267818
H       2.999977    1.887430    2.494606
