15

N       0.457002    1.354624   -0.040649
C       0.173358    0.007311   -0.039480
N      -1.052941   -0.459275   -0.141196
O      -0.913750   -1.857900   -0.187833
C       0.382033   -2.165963   -0.096421
C       1.147969   -1.049906   -0.005139
C       2.637230   -0.892066    0.099899
C       2.979753   -0.336377    1.475992
O       2.871119    0.830722    1.765608
H       1.253285    1.608283    0.532512
H      -0.351519    1.940924    0.112441
H       0.623222   -3.218443   -0.121934
H       3.137909   -1.852086   -0.053535
H       2.997378   -0.180119   -0.652028
H       3.299850   -1.080328    2.236177
