15

C      -0.018190    1.479360   -0.016949
N      -0.007171    0.032994    0.005906
C      -0.036572   -0.801065   -1.093737
C      -0.015442   -2.133910   -0.717892
C       0.029297   -2.090842    0.694358
C       0.033839   -0.775951    1.117311
C       0.078662   -0.860796    2.525736
N       0.099360   -2.119873    2.915466
O       0.068129   -2.918930    1.751211
H       0.883894    1.887289    0.451523
H      -0.053219    1.817573   -1.053919
H      -0.894736    1.874659    0.507498
H      -0.070937   -0.373534   -2.084578
H      -0.030517   -2.984885   -1.377772
H       0.097373   -0.091073    3.283528
