21

C      -0.047854    1.518023    0.003431
C       0.031208   -0.003322   -0.038974
C       1.184663   -0.567257   -0.936054
C       1.854261   -1.143453    0.318433
C       0.737172   -0.608004    1.189768
C       0.955301   -2.110632    1.078397
C       0.006176   -3.090059    0.464360
C      -0.085994   -4.430819    1.177083
O      -0.654698   -2.860666   -0.528280
H       0.928038    1.961395    0.234360
H      -0.378740    1.917938   -0.960980
H      -0.756613    1.856885    0.767611
H      -0.949387   -0.430672   -0.253934
H       0.901673   -1.277798   -1.712837
H       1.782511    0.236165   -1.375223
H       2.920982   -1.170538    0.509857
H       0.790825   -0.140907    2.167714
H       1.456552   -2.502477    1.960371
H       0.897640   -4.913764    1.208444
H      -0.401636   -4.287167    2.217073
H      -0.797654   -5.076316    0.661439
