10

F       0.065744    0.114627   -0.121294
C      -0.107120    1.391622    0.025519
N      -1.234942    1.929718   -0.127359
C      -1.309458    3.295551    0.051624
N      -2.365116    3.959195   -0.068375
O      -0.094864    3.963928    0.393897
C       1.082010    3.347557    0.545671
O       2.094208    3.886104    0.828071
O       1.063067    1.965282    0.345012
H      -2.201466    4.949698    0.105910
