20

C      -0.129699    1.697097    0.126633
C       0.001409    0.174791    0.251367
C      -1.299874   -0.567478   -0.057753
C      -1.810688   -0.415984   -1.504035
O      -2.635991   -1.565597   -1.759013
C      -2.384995   -2.553359   -0.855108
O      -2.930385   -3.618918   -0.900200
C      -1.279611   -2.096531    0.109839
N       0.011650   -2.713498   -0.224165
H       0.810446    2.192465    0.386056
H      -0.389151    2.001651   -0.893277
H      -0.906130    2.085888    0.795064
H       0.796666   -0.186253   -0.409621
H       0.319772   -0.087008    1.266470
H      -2.088025   -0.187492    0.605148
H      -2.422799    0.473560   -1.664261
H      -0.988440   -0.404880   -2.232239
H      -1.536508   -2.405018    1.125415
H      -0.084994   -3.722992   -0.148016
H       0.251071   -2.532499   -1.196387
