19

C      -0.057783    1.246480   -0.202676
C       0.130700   -0.241957    0.039731
C       1.462942   -0.884139   -0.459559
O       1.769781   -1.373631    0.859909
C       0.619574   -0.720442    1.408732
C       0.683098    0.002125    2.713322
C      -0.119190   -1.287152    2.570504
C       1.297317   -1.998862   -1.467041
O       1.372393   -1.841666   -2.658124
H       0.809710    1.815869    0.144716
H      -0.196250    1.449551   -1.269259
H      -0.942321    1.620103    0.324146
H      -0.747492   -0.799882   -0.301989
H       2.199095   -0.157306   -0.823113
H       1.619204   -0.050932    3.258744
H       0.146327    0.939233    2.820541
H      -1.203206   -1.229121    2.576681
H       0.290897   -2.182861    3.024704
H       1.064070   -2.985264   -1.005044
