19

C      -0.049613    1.665821   -0.052075
C       0.046019    0.136349   -0.035634
O       0.767741   -0.319151    1.100294
C      -1.372014   -0.518943   -0.039942
C      -2.094992   -0.227628    1.193699
N      -2.606763    0.027405    2.198791
C       0.796081   -0.369885   -1.261228
C       2.274477   -0.438461   -1.276557
N       1.466316   -1.675156   -1.233294
H       0.953249    2.095059    0.005601
H      -0.526818    2.022169   -0.970602
H      -0.637046    2.032271    0.796493
H       0.325269    0.001115    1.894769
H      -1.955188   -0.165172   -0.896553
H      -1.261589   -1.603280   -0.139165
H       0.276432   -0.160669   -2.194815
H       2.811959   -0.271633   -2.205417
H       2.798893   -0.144864   -0.373292
H       1.464059   -2.007652   -0.270334
