18

C      -0.319841    1.489430    0.040799
C      -0.017182    0.018628   -0.030618
C      -0.024055   -0.683118   -1.174448
C       0.210606   -2.160794   -1.303661
C       0.811828   -2.796839   -0.070035
N       2.048600   -2.186227    0.414407
C       0.805683   -2.043661    1.218452
C       0.227882   -0.662022    1.267515
O      -0.045188   -0.139629    2.332815
H       0.533716    2.044821    0.444884
H      -0.563000    1.893263   -0.945074
H      -1.156060    1.675474    0.721570
H      -0.248077   -0.162025   -2.103948
H      -0.743092   -2.653778   -1.543223
H       0.864395   -2.351699   -2.165585
H       0.722086   -3.878943   -0.006721
H       2.638430   -2.889046    0.852807
H       0.735675   -2.581468    2.158957
