16

C      -0.063371    1.567796   -0.021318
N       0.040253    0.112278   -0.073633
C      -1.209302   -0.581185    0.080804
C      -1.165382   -2.019029   -0.405677
O      -0.532243   -2.447178   -1.331383
C      -2.051549   -2.817933    0.545841
O      -2.269309   -1.971812    1.679038
C      -1.704121   -0.734455    1.521396
O      -1.670268    0.062622    2.408105
H       0.927041    2.000886   -0.182452
H      -0.754775    1.988566   -0.773068
H      -0.412505    1.867637    0.969049
H       0.463180   -0.196837   -0.943313
H      -2.062499   -0.113056   -0.463844
H      -3.010303   -3.069043    0.077155
H      -1.560711   -3.742982    0.861562
