15

C       0.000816    1.546963    0.010409
C       0.002700    0.016568    0.002314
C      -1.422914   -0.544266    0.012526
N      -1.438641   -2.004097    0.004868
N      -1.422899   -2.740338   -1.094726
N      -1.386371   -3.970533   -0.679184
N      -1.376962   -3.977721    0.667110
N      -1.407255   -2.752031    1.096222
H       1.023262    1.933285    0.002715
H      -0.514584    1.950344   -0.867704
H      -0.497754    1.941043    0.902350
H       0.522114   -0.360224   -0.885325
H       0.538403   -0.369541    0.876165
H      -1.965917   -0.234048    0.907767
H      -1.982420   -0.224317   -0.869038
