25

C       0.163455    1.639292   -0.126109
C       0.068711    0.127394    0.017235
C       0.936265   -0.790386   -0.898841
C       1.274169   -1.695392    0.324546
C       0.654174   -0.596928    1.258568
C       2.099063   -0.212986    1.696081
C       2.660431   -1.506989    1.013633
C       2.874670   -2.618106    2.047006
C       3.901543   -1.350843    0.140699
H       1.197929    1.992072   -0.058087
H      -0.228074    1.964017   -1.096881
H      -0.414404    2.150545    0.652387
H      -0.981861   -0.171431   -0.078729
H       0.400244   -1.283085   -1.713594
H       1.803669   -0.283558   -1.332034
H       0.888806   -2.716230    0.268573
H      -0.033561   -0.825049    2.074846
H       2.468091    0.714300    1.248690
H       2.263972   -0.150802    2.775282
H       1.987747   -2.756495    2.674844
H       3.087626   -3.574888    1.555914
H       3.717699   -2.382917    2.707089
H       4.778150   -1.114115    0.755581
H       4.122090   -2.276142   -0.404969
H       3.793256   -0.547658   -0.594366
