17

C       0.091331    1.655296    0.299142
C      -0.032959    0.145387    0.482142
C      -1.212979   -0.456725   -0.263274
O      -2.021181    0.199697   -0.872372
C      -1.299267   -1.966469   -0.204612
O      -2.515709   -2.571653   -0.605177
C      -1.390742   -2.772157   -1.458567
C      -1.410995   -2.184979   -2.769252
C      -1.395171   -1.751658   -3.889514
H       0.940147    2.045205    0.867214
H       0.232682    1.909458   -0.754483
H      -0.816329    2.161728    0.635986
H       0.877289   -0.377227    0.154144
H      -0.142514   -0.118731    1.544157
H      -0.802787   -2.440541    0.643866
H      -0.973240   -3.778506   -1.413408
H      -1.397500   -1.348382   -4.872267
