17

C       0.020593    1.529599    0.070498
C      -0.019453    0.017408   -0.068805
C       0.787077   -0.509326   -1.255552
C       0.927288   -2.019490   -1.193036
O       2.065598   -2.495977   -0.480691
C       0.772592   -2.680137    0.115514
C       0.568538   -1.852017    1.360136
O       0.560184   -2.334693    2.458481
O       0.463552   -0.513562    1.191951
H       1.050342    1.872572    0.207650
H      -0.388892    2.003130   -0.826755
H      -0.567363    1.849324    0.933986
H      -1.061944   -0.313411   -0.176196
H       0.284932   -0.210424   -2.181153
H       1.787334   -0.063050   -1.261264
H       0.692044   -2.591408   -2.089297
H       0.445424   -3.712314    0.207134
