23

C      -0.164804    1.669086   -0.177331
C      -0.163872    0.143363   -0.062553
O      -1.465153   -0.387873   -0.312747
C       0.771847   -0.518270   -1.071202
C       2.263510   -0.159225   -0.875214
O       3.023938   -1.322863   -1.190226
C       2.153307   -2.304858   -1.743958
C       0.792842   -2.070263   -1.077710
C       0.716296   -2.715781    0.310849
H       0.826242    2.087130    0.026363
H      -0.474933    1.976845   -1.181106
H      -0.860551    2.111176    0.545582
H       0.163363   -0.132560    0.953286
H      -2.084010    0.050622    0.279894
H       0.454298   -0.189297   -2.068503
H       2.569281    0.676374   -1.519059
H       2.484435    0.124534    0.163406
H       2.081533   -2.188767   -2.838200
H       2.582867   -3.289167   -1.532422
H      -0.022207   -2.453966   -1.696977
H       1.532749   -2.376916    0.957062
H      -0.234926   -2.485170    0.796470
H       0.794687   -3.804681    0.226737
