19

C      -0.055690    1.529255   -0.093305
C      -0.003476    0.006021    0.034995
O       0.665637   -0.516959   -1.122872
C       1.491591   -1.629310   -0.770059
C       1.249248   -1.898263    0.722690
C       0.832471   -0.514364    1.235166
O       1.944373    0.351162    1.400657
C      -1.366022   -0.552476    0.118999
C      -2.477198   -1.006622    0.186739
H       0.958666    1.925554   -0.130883
H      -0.587521    1.795779   -1.009263
H      -0.584062    1.967367    0.757622
H       1.232966   -2.488295   -1.398790
H       2.537849   -1.361867   -0.962813
H       0.428561   -2.606439    0.867126
H       2.132222   -2.287201    1.237732
H       0.224686   -0.558815    2.147070
H       2.513653   -0.025681    2.078295
H      -3.459859   -1.406733    0.235764
