21

C       0.128686    1.491850    0.334016
C       0.024475    0.022055   -0.081949
C      -1.385417   -0.550302    0.094561
C      -1.489507   -2.024027   -0.316702
C      -2.883046   -2.596935   -0.120673
C      -3.062800   -3.974297    0.385007
O      -3.243327   -2.860347    1.251975
C      -3.932834   -2.017271   -0.929326
C      -4.780366   -1.524407   -1.624944
H       1.144608    1.875137    0.196537
H      -0.547425    2.119095   -0.257476
H      -0.137799    1.623851    1.388468
H       0.331513   -0.085030   -1.131085
H       0.735703   -0.575641    0.503788
H      -1.695170   -0.454752    1.142828
H      -2.098693    0.040285   -0.493902
H      -1.206288   -2.142578   -1.370262
H      -0.791733   -2.626322    0.276243
H      -3.967316   -4.523350    0.129883
H      -2.178580   -4.582633    0.573391
H      -5.538221   -1.091911   -2.230347
