17

O      -0.307178    0.130535    0.282831
C      -0.078359    1.236855   -0.087434
O      -0.841626    2.017629   -0.921554
C       0.086955    3.153502   -0.792182
C      -0.550149    4.381366   -0.142081
C       0.416675    5.046823    0.810284
C       1.244249    4.335736    1.574624
C       1.269410    2.826150    1.537990
C       1.002275    2.302815    0.112812
H       0.507462    3.385493   -1.772608
H      -0.901404    5.082550   -0.904049
H      -1.443232    4.046784    0.403246
H       0.399976    6.130318    0.874976
H       1.910274    4.832139    2.274012
H       2.225638    2.444679    1.905239
H       0.509222    2.430518    2.225211
H       1.936854    2.021991   -0.377589
