16

O      -0.078218   -0.098167    0.002575
C      -0.020381    1.109692    0.007174
C       1.206607    1.866004    0.000887
C       2.222943    2.518381   -0.005603
C       3.444724    3.307307   -0.012926
C       3.185655    4.826120   -0.002445
C       4.507069    5.618417   -0.010751
C       4.287485    7.062657   -0.001085
N       4.094752    8.201761    0.006718
H      -0.937300    1.733159    0.016651
H       4.054591    3.025016    0.856132
H       4.038009    3.034311   -0.896316
H       2.585718    5.103234   -0.873929
H       2.602341    5.093929    0.883118
H       5.116481    5.353710    0.861616
H       5.099879    5.362961   -0.897202
