25

C      -0.081048    1.537140    0.069518
C       0.000185    0.020426   -0.013933
C       0.666941   -0.483789   -1.299154
C       0.859559   -2.006990   -1.253894
C       1.548008   -2.478592    0.048534
C       1.453995   -4.006252    0.163822
C       3.024655   -2.045982    0.087378
C       0.789680   -1.833315    1.225997
O       0.726132   -0.422319    1.129559
H       0.921943    1.974157    0.034843
H      -0.663724    1.938677   -0.765109
H      -0.554850    1.843362    1.006015
H      -1.021137   -0.401890    0.036477
H       0.053680   -0.205378   -2.164306
H       1.631883    0.023592   -1.417022
H      -0.125484   -2.489728   -1.320509
H       1.430466   -2.348063   -2.125867
H       1.973626   -4.492558   -0.669201
H       1.911611   -4.364471    1.093160
H       0.412263   -4.346015    0.149626
H       3.121900   -0.958846    0.129443
H       3.522689   -2.455300    0.973453
H       3.564323   -2.408053   -0.794686
H      -0.230943   -2.252536    1.278399
H       1.290221   -2.051792    2.175754
