16

O      -0.185784   -0.014670   -0.202418
C      -0.094043    1.164288    0.014215
C      -1.265544    2.126237   -0.147081
C      -1.212669    3.282015    0.825609
N      -0.638105    2.960623    2.143618
C       0.099073    3.848763    1.228062
C       1.374491    3.266900    0.662899
C       1.288398    1.761630    0.438387
O       2.239160    1.033103    0.541550
H      -1.241055    2.506618   -1.179324
H      -2.188786    1.548326   -0.045583
H      -2.060678    3.962020    0.792569
H      -1.091703    3.482332    2.887304
H       0.132345    4.909528    1.465355
H       1.598708    3.733599   -0.308056
H       2.234203    3.459317    1.311384
