20

C       0.017870    1.541115    0.019981
C       0.012684    0.028039    0.021685
C       1.303752   -0.705265   -0.259106
C       0.715888   -0.701619    1.142635
C       0.432956   -2.181002    1.299543
C      -0.108080   -2.793783   -0.021622
C       0.708348   -4.040332    0.324022
N       1.678879   -2.933028    0.728156
C       1.214632   -2.185852   -0.564341
H       0.960795    1.934764    0.413899
H      -0.109325    1.935280   -0.994065
H      -0.793295    1.939462    0.638987
H      -0.903579   -0.412985   -0.361443
H       2.198032   -0.149950   -0.515813
H       1.160579   -0.143506    1.957969
H       0.081885   -2.556443    2.262516
H      -1.117451   -2.724733   -0.445109
H       0.374567   -4.659373    1.161964
H       1.070968   -4.663696   -0.498590
H       1.654776   -2.566202   -1.487993
