19

C       0.597655    1.192268    0.524651
C       0.164918   -0.209911    0.154251
C       0.466870   -0.738475   -1.267291
C       1.192397   -1.883513   -0.533176
C       2.656738   -2.104328   -0.855859
O       3.227326   -3.100128   -0.003157
C       3.731384   -2.686139    1.181580
O       4.181373   -3.448459    1.981825
O       1.013556   -1.233182    0.744402
H       1.627659    1.381746    0.206582
H      -0.056432    1.930940    0.048603
H       0.541041    1.334538    1.608309
H      -0.878894   -0.376155    0.453558
H      -0.388186   -1.018075   -1.882952
H       1.131266   -0.088728   -1.844109
H       0.665572   -2.846488   -0.560008
H       2.769836   -2.477580   -1.878219
H       3.207238   -1.159319   -0.764909
H       3.685661   -1.589972    1.308170
