18

C      -0.123532    1.320802   -0.014874
N      -0.061593   -0.124551    0.142638
C      -1.097786   -0.804982    0.004616
O      -2.421143   -0.388541   -0.281296
C      -2.901586   -1.746476   -0.034327
C      -4.138928   -1.888791    0.784601
C      -2.333044   -2.604849   -1.101418
O      -2.108145   -2.172196   -2.396097
C      -1.453641   -2.240484    0.116298
H       0.497510    1.614049   -0.868692
H      -1.136295    1.712674   -0.165073
H       0.310886    1.794249    0.871924
H      -4.996242   -1.444820    0.267159
H      -4.357241   -2.946710    0.955417
H      -4.026643   -1.393109    1.753592
H      -2.646433   -3.645296   -1.084187
H      -2.172573   -1.208016   -2.386174
H      -0.996245   -2.973347    0.765615
