12

O      -0.982274    1.619755   -0.044081
C       0.084786    1.217349    0.334664
C       1.386608    2.027409    0.303208
O       2.368026    1.597252    0.871768
N       1.342995    3.171792   -0.451157
C       0.473538    4.316204   -0.285430
C       1.963670    4.430566   -0.116366
H       0.237256    0.218145    0.791785
H       0.000597    4.684815   -1.190413
H      -0.145752    4.353311    0.605630
H       2.365050    4.527601    0.888772
H       2.558101    4.888316   -0.901222
