23

C      -0.053082    1.377208    0.255838
C      -0.180909   -0.116522    0.499714
O       1.090335   -0.617489    0.885035
C       1.082058   -1.984436    1.149518
C       2.245078   -2.528393    1.921906
C       0.880448   -2.476368    2.559646
C       0.421647   -1.606879    3.735610
C      -0.751898   -2.609458    3.952168
C      -0.046356   -3.617983    2.995651
H       0.685252    1.575527   -0.526264
H      -1.013809    1.796679   -0.057478
H       0.268999    1.889321    1.167123
H      -0.926482   -0.322762    1.283077
H      -0.522728   -0.630386   -0.414078
H       0.673292   -2.595540    0.340680
H       2.657194   -3.488693    1.627483
H       2.976831   -1.803275    2.264593
H       1.135150   -1.611159    4.566046
H       0.164487   -0.568984    3.509810
H      -0.928645   -2.945842    4.975951
H      -1.695423   -2.240146    3.542247
H      -0.661850   -4.082545    2.219185
H       0.482123   -4.409800    3.537073
