17

O       0.196182    1.373569   -0.035775
C       0.019918   -0.007294    0.004909
C      -0.444869   -0.679844    1.272356
O      -1.050001    0.201267    2.194152
C      -2.407181    0.432171    1.834538
C      -2.715910    1.409100    0.730942
C      -2.632952   -0.079835    0.441369
C      -1.324406   -0.739470    0.041187
O      -1.413814   -1.939529   -0.663107
H       0.183566    1.674766    0.882771
H       0.771851   -0.553133   -0.563476
H       0.070808   -1.524987    1.717376
H      -3.092715    0.292747    2.663527
H      -3.712727    1.838904    0.749418
H      -1.943630    2.057617    0.344994
H      -3.519442   -0.637552    0.164985
H      -1.457349   -1.729439   -1.602727
