15

C      -0.003660    1.434560   -0.176298
C      -0.020938   -0.044538    0.075290
N      -0.056275   -0.535913    1.241008
O       0.007145   -0.710447   -1.124883
C      -0.003737   -2.130416   -1.077491
C       0.030773   -2.645138   -2.436481
C       0.058799   -3.106947   -3.550526
C       0.090625   -3.625628   -4.813590
N       0.117495   -4.068227   -5.886856
H       0.895169    1.711766   -0.735285
H      -0.866269    1.723972   -0.784068
H      -0.026372    1.964525    0.774475
H      -0.064253   -1.553804    1.266227
H       0.865451   -2.506927   -0.518368
H      -0.907764   -2.494993   -0.567898
