15

C      -0.144042    1.423965   -0.038236
C       0.067777   -0.063487    0.043018
O       0.290459   -0.659851    1.070197
C       0.013779   -0.890167   -1.274820
O       0.339836   -2.225225   -1.009443
C      -1.306248   -0.743574   -1.893009
C      -2.398773   -0.625841   -2.400744
C      -3.627110   -0.491513   -2.969517
C      -4.717342   -0.370209   -3.473940
H       0.586106    1.870190   -0.722563
H      -1.136169    1.637510   -0.447409
H      -0.043389    1.868558    0.952083
H       0.765598   -0.454315   -1.954849
H       0.375048   -2.282382   -0.038712
H      -5.676553   -0.266953   -3.917630
