17

C      -0.146681    1.458110   -0.012423
N       0.000467    0.021255    0.040710
C       0.126687   -0.767861   -1.083005
O       0.189088   -0.433163   -2.238633
O       0.164670   -2.064998   -0.637714
C       0.078310   -2.068554    0.754981
C       0.101856   -3.383581    1.436198
C      -0.036872   -0.797479    1.178082
N      -0.270709   -0.229191    2.434799
H       0.746195    1.973693    0.360781
H      -0.291612    1.726474   -1.059967
H      -1.010384    1.774955    0.578266
H      -0.778512   -3.991666    1.194077
H       0.987219   -3.962447    1.148515
H       0.128927   -3.247850    2.521328
H      -0.461302   -0.935369    3.133857
H       0.497500    0.351466    2.758032
