15

C      -0.078843    1.494475   -0.090074
C       0.033531   -0.012854   -0.072905
O       1.094419   -0.598755   -0.049700
C      -1.236988   -0.796799   -0.085861
N      -2.403831   -0.187498   -0.099755
O      -3.347053   -1.221494   -0.106342
C      -2.705624   -2.405300   -0.097483
N      -3.505430   -3.515829   -0.165282
C      -1.353420   -2.210469   -0.082129
H       0.920010    1.931026   -0.072674
H      -0.621760    1.821539   -0.982335
H      -0.661098    1.839505    0.769929
H      -4.452115   -3.373958    0.156551
H      -3.088951   -4.364969    0.184284
H      -0.558573   -2.934490   -0.074446
