21

C      -0.291466    1.592640    0.602564
C      -0.061167    0.092633    0.491001
O       0.484321   -0.260720   -0.801618
C       1.617480   -1.034468   -0.457436
C       1.328441   -1.926191    0.782839
C       2.797446   -1.764804    1.220062
C       2.406419   -0.356410    0.707975
C       3.281387    0.867230    0.634622
C       0.996065   -0.529727    1.402311
H       0.644473    2.152722    0.537719
H      -0.949874    1.933157   -0.201969
H      -0.771680    1.832019    1.557542
H      -1.024124   -0.426107    0.611486
H       2.116079   -1.416987   -1.348386
H       0.701768   -2.817557    0.824154
H       2.997359   -1.854164    2.291439
H       3.551435   -2.305544    0.638502
H       4.231405    0.630491    0.142151
H       2.802825    1.666392    0.060500
H       3.513111    1.257448    1.631848
H       0.900574   -0.417633    2.483585
