20

C      -0.200097    1.504002    0.050568
C       0.038511   -0.011799   -0.027040
C       0.564686   -0.452627   -1.401398
O       1.751786    0.188942   -1.812177
C       2.923017   -0.267782   -1.161260
C       3.080507    0.233746    0.277727
C       2.189910   -0.408812    1.338060
O       2.653624   -0.809510    2.391415
N       0.848274   -0.528025    1.079151
H       0.720926    2.059769   -0.137294
H      -0.933256    1.812853   -0.701682
H      -0.580541    1.781634    1.037080
H      -0.930382   -0.514332    0.080924
H       0.697497   -1.546069   -1.398868
H      -0.187203   -0.199537   -2.156546
H       2.968133   -1.368490   -1.187262
H       3.755731    0.113896   -1.759692
H       4.103981    0.051450    0.614544
H       2.924707    1.319414    0.288557
H       0.348548   -0.905936    1.871266
