19

C      -0.045485    1.503148    0.035208
C      -0.023026    0.008664    0.002323
C      -0.313859   -0.786642   -1.031831
C      -0.140381   -2.223711   -0.703866
C      -0.789241   -3.311257   -1.477795
N       0.666910   -3.107289   -1.581233
C       0.110330   -2.273701    0.808157
C       0.389856   -0.803438    1.215449
H       0.941487    1.905753    0.298026
H      -0.340383    1.927714   -0.928270
H      -0.742141    1.872760    0.798682
H      -0.613538   -0.447675   -2.019229
H      -1.084437   -4.228698   -0.973434
H      -1.421915   -3.039826   -2.320265
H       0.886772   -2.621238   -2.448578
H      -0.781935   -2.644976    1.322285
H       0.933825   -2.951195    1.042846
H       1.449470   -0.628078    1.448133
H      -0.167197   -0.508237    2.113034
