17

C       0.189492    1.346589   -0.227503
O       1.292781    1.900616    0.473856
C       1.952852    0.835201    1.119742
C       2.396247   -0.327156    0.247509
C       3.166812   -1.428905    0.950956
O       2.433883   -1.749330    2.140660
C       1.051755   -1.490418    1.928562
C       1.045639   -0.335387    0.964931
O      -0.135514    0.100471    0.370034
H      -0.669740    2.019489   -0.150763
H       0.456152    1.191404   -1.285256
H       2.467070    1.138538    2.024779
H       2.509094   -0.198692   -0.822665
H       3.246573   -2.304502    0.287979
H       4.175013   -1.147268    1.272315
H       0.526677   -2.354287    1.490257
H       0.604416   -1.264770    2.901454
