19

O       0.437654    0.251984    0.936594
C      -0.136953    0.097505   -0.368288
C      -1.487121   -0.582533   -0.231574
O      -2.183139   -0.819189   -1.474547
C      -2.440252   -2.202128   -1.115351
C      -1.525633   -2.070957    0.097111
C      -0.366092   -2.958983    0.490958
C      -1.471218   -2.653765    1.471670
O      -1.236597   -1.796995    2.549956
H       0.044467    1.031871    1.341794
H      -0.234242    1.062709   -0.881408
H       0.551713   -0.526152   -0.944483
H      -2.111393    0.010811    0.458221
H      -3.503414   -2.370354   -0.896307
H      -2.116160   -2.893910   -1.901580
H      -0.330123   -3.949504    0.046309
H       0.607337   -2.510964    0.668490
H      -2.159218   -3.444299    1.754997
H      -0.564111   -1.157658    2.270287
