19

C      -0.295172   -1.184209   -0.160101
C      -0.173954   -0.014955    0.093425
C      -0.013112    1.401661    0.370543
O       0.267503    1.697655    1.760797
C       1.476130    2.407007    1.416715
C       1.310761    2.082268   -0.081265
C       2.441358    1.348181   -0.839365
C       2.745855    2.667269   -1.601887
C       1.362811    3.206060   -1.142916
H      -0.411533   -2.218471   -0.372161
H      -0.905645    1.948507    0.032600
H       1.410882    3.472158    1.676018
H       2.356210    1.971101    1.906115
H       3.239146    0.911823   -0.232732
H       2.039533    0.569198   -1.493300
H       3.573268    3.223205   -1.152875
H       2.922460    2.594823   -2.676936
H       0.592893    3.068927   -1.909106
H       1.308288    4.235497   -0.777798
