18

O       0.246890    1.414589   -0.263598
C       0.044936    0.064652   -0.036789
C       0.199464   -0.605372    1.359796
C      -0.384547    0.236142    2.506062
C      -1.826450    0.629420    2.198636
N      -2.043943    1.628672    1.131782
C      -2.362252    0.200174    0.880568
C      -1.364445   -0.599663    0.050752
O      -0.779413   -1.598277    0.937194
H      -0.484398    1.875449    0.192520
H       0.646354   -0.497044   -0.756488
H       1.156809   -1.059620    1.628672
H      -0.372739   -0.364203    3.421546
H       0.238341    1.120946    2.682097
H      -2.508750    0.671359    3.042150
H      -2.891345    2.162133    1.299703
H      -3.409776   -0.073178    0.797265
H      -1.805120   -1.046196   -0.843513
