21

C      -0.017459    1.440511    0.229968
C      -0.044465   -0.064146    0.055514
O       1.002554   -0.559960   -0.850334
C       1.305387   -1.668764    0.065213
C       2.696158   -1.863976    0.688981
C       2.365354   -1.879920    2.218231
C       1.131464   -0.970600    2.321501
C       0.807096   -0.201837    3.561430
C       0.540425   -0.958466    1.128145
H       0.953077    1.765949    0.612681
H      -0.197739    1.932826   -0.730811
H      -0.800624    1.758764    0.926404
H      -1.026617   -0.391663   -0.316250
H       0.880622   -2.597627   -0.340536
H       3.225789   -2.758112    0.348034
H       3.310307   -0.988047    0.457088
H       2.167224   -2.899896    2.575886
H       3.192638   -1.497169    2.827061
H       0.556773   -0.876319    4.390809
H       1.667149    0.392389    3.895731
H      -0.041102    0.471372    3.412613
