16

C       0.124868    1.470668   -0.004650
C      -0.062305   -0.000897   -0.030691
C      -1.133771   -0.820100   -0.110991
C      -0.642890   -2.183064   -0.072801
C      -1.357549   -3.396035   -0.108207
C      -1.950129   -4.447165   -0.128707
C       0.723841   -2.061985    0.018602
N       1.733949   -2.996249    0.011696
O       1.094064   -0.767479    0.045937
H       0.741494    1.818019   -0.842160
H      -0.847724    1.963435   -0.071339
H       0.612513    1.803411    0.919580
H      -2.167316   -0.520320   -0.180985
H      -2.479595   -5.366317   -0.159684
H       1.400633   -3.928165    0.217926
H       2.537788   -2.742443    0.570390
