20

O       0.383610    1.183118   -0.135911
C       0.105302   -0.192958   -0.282924
C      -1.376427   -0.550836   -0.062656
C      -2.184807    0.140807   -1.175088
O      -2.300358    1.534119   -0.872521
C      -1.753584   -1.964727    0.487632
C      -1.182070   -1.460826    1.836714
N      -1.987857   -0.240373    1.352007
C      -3.049932   -1.305707    1.001815
H      -0.361278    1.669740   -0.518546
H       0.358928   -0.552599   -1.297086
H       0.777925   -0.717641    0.397044
H      -1.644910    0.076049   -2.124528
H      -3.173254   -0.298684   -1.343414
H      -2.528461    1.583014    0.067524
H      -1.621349   -2.939871    0.006143
H      -1.598314   -1.900970    2.745722
H      -0.116043   -1.286252    1.953775
H      -3.818523   -0.984464    0.302125
H      -3.510100   -1.741662    1.891271
