19

C       0.044747    1.518461   -0.070527
N       0.040000    0.071581    0.091715
C      -0.897062   -0.539168    1.026485
C       0.057114   -1.627949    1.395417
C       1.122798   -0.588238    0.877915
C       1.114853    0.039728    2.305358
C      -0.273722   -0.585248    2.454686
C      -1.093429   -0.733039    3.700680
H       0.923947    1.811042   -0.654792
H      -0.844631    1.811449   -0.639064
H       0.046085    2.092708    0.869331
H      -1.967574   -0.577750    0.858398
H      -0.014587   -2.705282    1.359229
H       2.054176   -0.793850    0.351601
H       1.838858   -0.470926    2.947481
H       1.242673    1.123389    2.406025
H      -1.405845    0.243809    4.088663
H      -2.001161   -1.316961    3.510733
H      -0.535079   -1.242428    4.495127
