18

C       0.118827    1.435465    0.030709
N       0.062932   -0.020420   -0.019745
C       0.263214   -0.688712    1.255399
C      -0.053012   -0.628203   -1.230801
O      -0.172399   -0.023592   -2.281934
C      -0.043557   -2.198608   -1.286309
N      -0.420315   -2.709999   -2.594772
C       1.297138   -2.685144   -0.917449
N       2.355661   -3.028296   -0.605337
H       1.091525    1.768106    0.412990
H      -0.028677    1.823837   -0.974795
H      -0.663204    1.820508    0.695219
H       0.080778   -1.758900    1.189591
H       1.288776   -0.545785    1.617649
H      -0.425468   -0.270929    1.998629
H      -0.747234   -2.595123   -0.546832
H      -1.426639   -2.614831   -2.695603
H      -0.025448   -2.078957   -3.290012
