20

C      -0.017595    1.412754    0.123804
C      -0.013273   -0.074142   -0.042957
N      -0.007703   -0.657611   -1.173410
C      -0.004299   -2.118755   -1.075807
C      -1.076166   -2.562842   -0.036136
C      -0.011714   -2.175944    1.025591
C      -0.015263   -2.747125    2.419389
C       1.062324   -2.557349   -0.028440
O      -0.015900   -0.729325    1.153940
H       0.860935    1.735380    0.691902
H      -0.015816    1.888268   -0.856333
H      -0.901173    1.730863    0.686584
H       0.000425   -2.566314   -2.069040
H      -2.027711   -2.026905   -0.025745
H      -1.242953   -3.642401   -0.045729
H      -0.012290   -3.839878    2.378619
H       0.868153   -2.415694    2.974137
H      -0.904360   -2.420279    2.967746
H       1.234719   -3.636037   -0.036809
H       2.011006   -2.016533   -0.011213
