12

N       0.027969    1.241234    0.009080
N       1.095978    2.049589    0.003072
N       2.281922    1.512295   -0.011597
C       2.346465    0.172086   -0.019701
N       3.438011   -0.574804   -0.034589
C       2.954561   -1.861058   -0.037012
C       1.565260   -1.982994   -0.024012
C       1.121729   -0.653064   -0.012236
N      -0.066540   -0.077285    0.002663
H      -0.849549    1.744295    0.020518
H       3.660122   -2.683598   -0.048538
H       0.975527   -2.885410   -0.023228
