15

C      -0.007714    1.310650    0.009764
C       1.280221    1.800010   -0.000089
N       2.091440    0.689399   -0.014384
C       3.455239    0.560123   -0.028503
C       4.009658   -0.684461   -0.041041
C       3.181099   -1.839856   -0.039501
C       1.816913   -1.712716   -0.025391
C       1.233456   -0.428383   -0.012340
N      -0.039985   -0.050330    0.002308
H      -0.918877    1.891652    0.022022
H       1.682533    2.799055    0.001656
H       4.025978    1.479770   -0.028858
H       5.088086   -0.779382   -0.052163
H       3.638306   -2.822451   -0.049592
H       1.153136   -2.568267   -0.023758
