13

N      -0.144853    1.341581   -0.132165
C      -0.081608   -0.012692   -0.053742
C      -1.118187   -0.929933    0.028986
C      -2.584714   -0.657905    0.019167
O      -2.924693    0.334686   -0.958214
N      -0.525080   -2.152644    0.110172
N       0.717639   -2.110543    0.099717
O       1.075572   -0.627884   -0.019108
H       0.683783    1.820111   -0.448327
H      -1.026795    1.693033   -0.479759
H      -3.131504   -1.596456   -0.136325
H      -2.928286   -0.231038    0.968371
H      -2.709563   -0.032706   -1.823060
