25

C       0.107687    1.153898   -0.840259
C      -0.028405   -0.139562   -0.027359
C      -1.467193   -0.582238    0.207645
C      -2.360491    0.378121    0.983309
C      -1.814569    0.817029    2.352556
C      -2.821062    1.680983    3.115387
O      -1.380439   -0.286698    3.143547
C      -2.126518   -1.390524   -0.888169
C      -1.704928   -2.060189    0.397972
H       1.160110    1.389511   -1.026686
H      -0.393784    1.064540   -1.810004
H      -0.331310    2.011503   -0.319912
H       0.499275   -0.945910   -0.551231
H       0.477498   -0.029855    0.939391
H      -2.553048    1.281356    0.388825
H      -3.343293   -0.093183    1.130712
H      -0.901235    1.404381    2.198614
H      -3.750751    1.126633    3.295485
H      -2.408058    1.976456    4.083551
H      -3.076390    2.586061    2.554163
H      -2.127038   -0.886876    3.246120
H      -3.187526   -1.249348   -1.068176
H      -1.551869   -1.599078   -1.784856
H      -0.847113   -2.723953    0.375995
H      -2.484525   -2.376052    1.083704
