14

O       0.023520    1.391278    0.009174
C      -0.013050   -0.010788    0.002927
C      -1.462451   -0.470634    0.012609
O      -2.404308    0.284287    0.023754
C      -1.687041   -1.947052    0.007641
N      -0.684257   -2.799201   -0.004467
O      -1.258337   -4.053258   -0.005577
C      -2.599279   -3.921671    0.005981
C      -2.946137   -2.612958    0.014829
H       0.946036    1.662010    0.002424
H       0.469521   -0.454774   -0.883426
H       0.483902   -0.462985    0.877102
H      -3.156845   -4.844963    0.006276
H      -3.923199   -2.162776    0.024868
