22

C       0.329087    1.473035    0.307233
C      -0.030740    0.018923   -0.004765
C       0.640688   -0.506601   -1.275761
O       2.062250   -0.472749   -1.188630
C       0.145183   -1.916419   -1.659136
O      -1.266190   -1.915073   -1.880034
C       0.895842   -2.475326   -2.849800
C       1.879218   -3.571912   -2.684593
N       0.579196   -3.832322   -3.321299
H       1.413377    1.599236    0.371636
H      -0.036463    2.145480   -0.476843
H      -0.112603    1.795699    1.254679
H       0.266678   -0.628887    0.834329
H      -1.112987   -0.101791   -0.114328
H       0.402216    0.166501   -2.112503
H       2.322809   -1.012281   -0.433480
H       0.284962   -2.588107   -0.799041
H      -1.428071   -1.524451   -2.746325
H       1.058829   -1.761161   -3.656936
H       2.738185   -3.635770   -3.346145
H       2.056054   -3.948332   -1.679644
H      -0.058881   -4.274445   -2.662572
