17

C      -0.027897    1.454445   -0.013875
C       1.279572    0.689548    0.006476
C      -0.025112   -0.040714   -0.004137
C      -0.517404   -0.958293    1.104151
O       0.265753   -2.167016    0.849396
C      -0.545789   -2.314721   -0.313541
C      -1.752341   -1.609063    0.303937
O      -2.020904   -0.828649   -0.858675
C      -0.583408   -0.918907   -1.113045
H      -0.330865    1.970160    0.891745
H      -0.319617    1.959329   -0.928706
H       1.877885    0.678730   -0.898954
H       1.862335    0.682114    0.921493
H      -0.526279   -0.638171    2.144282
H      -0.495543   -3.272846   -0.827060
H      -2.612327   -2.035032    0.816972
H      -0.299695   -0.769251   -2.153016
