16

O       0.144059    0.213145    0.414838
C       0.126658    1.310226   -0.079339
C       1.347099    2.176146   -0.300702
C       1.526785    2.525234   -1.793303
N       2.606526    3.465025   -2.024609
C       2.437011    4.800372   -1.914143
O       1.395117    5.372831   -1.643876
C       3.720758    5.594204   -2.171552
O       4.783363    5.078133   -2.404511
H      -0.829702    1.770158   -0.421715
H       1.199004    3.116153    0.246396
H       2.226151    1.663761    0.098710
H       1.726061    1.620804   -2.374685
H       0.608333    2.981144   -2.175718
H       3.546130    3.143577   -2.208787
H       3.568417    6.689556   -2.113349
