17

O       0.007020    1.406188    0.097911
C       0.024079    0.012104    0.008351
C      -1.409493   -0.568846    0.027848
C      -1.422401   -2.072704   -0.220846
O      -1.987888   -2.851374    0.507423
C      -0.667987   -2.521221   -1.470853
C       0.762623   -1.933257   -1.521615
C       0.747932   -0.442025   -1.259108
O       1.251427    0.381243   -1.991576
H       0.517662    1.717473   -0.667787
H       0.577550   -0.418342    0.862203
H      -1.899371   -0.350091    0.977966
H      -1.977505   -0.075545   -0.772154
H      -0.650810   -3.612113   -1.501437
H      -1.229568   -2.168074   -2.346078
H       1.374058   -2.407003   -0.742368
H       1.241941   -2.121238   -2.484383
