12

O      -0.097000   -0.033996   -0.000371
C      -0.003359    1.172311    0.007803
C       1.241353    1.893189   -0.000404
C       2.271700    2.527391   -0.007054
C       3.458556    3.284954   -0.014307
N       4.684942    2.726752   -0.031179
N       5.483954    3.772273   -0.032374
N       4.916072    4.975270   -0.017981
C       3.619129    4.690714   -0.006175
H      -0.899788    1.824922    0.022796
H       6.486804    3.664981   -0.043752
H       2.870207    5.465365    0.007168
