22

C       0.034073    1.543244   -0.080198
C       0.045915    0.014788    0.001535
C       0.722215   -0.518109    1.259986
C       0.593650   -2.041308    1.395541
N       1.531308   -2.657618    2.351805
C       2.897681   -2.889290    1.876392
C       2.626829   -1.830207    2.878866
C       2.718037   -0.373506    2.467161
O       2.098491   -0.144933    1.217905
H       1.052521    1.936678   -0.030424
H      -0.420943    1.884595   -1.014748
H      -0.536296    1.979517    0.747463
H      -0.978738   -0.376166   -0.029351
H       0.569186   -0.403354   -0.867177
H       0.265604   -0.041644    2.146323
H      -0.425976   -2.282274    1.720762
H       0.735637   -2.508294    0.413381
H       3.343558   -3.835468    2.172974
H       3.143335   -2.556660    0.869710
H       2.860128   -2.016372    3.926631
H       2.250286    0.259400    3.240700
H       3.763561   -0.062129    2.367804
