20

C       0.404191    1.578381    0.066417
C      -0.059360    0.142657   -0.075526
C       0.480319   -0.690241   -1.258273
C       1.036728   -1.626800   -0.164590
C       0.611518   -3.114345   -0.127094
C       2.033506   -3.484236   -0.632634
C       2.513169   -2.078117   -0.176549
O       0.583516   -0.744629    0.874365
H       1.488984    1.650249   -0.060606
H      -0.079080    2.213108   -0.684825
H       0.148462    1.966820    1.057361
H      -1.151333    0.086705    0.033647
H      -0.266411   -1.122919   -1.926907
H       1.244932   -0.180592   -1.850054
H       0.455938   -3.429053    0.908985
H      -0.253172   -3.415444   -0.724929
H       2.516972   -4.350378   -0.177514
H       2.067727   -3.598508   -1.719347
H       3.209100   -1.526842   -0.814835
H       2.904306   -2.095533    0.845087
