21

C      -0.058059    1.531969   -0.067551
C       0.008541    0.013663    0.009572
O       0.614635   -0.435453   -1.200394
C       0.873894   -1.829805   -1.258427
C       1.557127   -2.334400    0.022160
C       0.651392   -2.062400    1.226711
C       0.789704   -0.529380    1.228997
C       2.311763   -0.390220    1.027612
O       2.721393   -1.554323    0.292262
H       0.942903    1.972566   -0.084035
H      -0.575652    1.836852   -0.980875
H      -0.602140    1.934391    0.792468
H      -1.021570   -0.381341    0.069830
H      -0.055611   -2.400971   -1.428110
H       1.528937   -1.973408   -2.122285
H       1.864193   -3.377877   -0.095271
H      -0.378187   -2.404119    1.091105
H       1.060022   -2.517414    2.133710
H       0.440551   -0.052140    2.148175
H       2.586640    0.507652    0.464621
H       2.842272   -0.373543    1.988486
