14

O      -0.226524    1.448179   -0.223680
C      -0.011999    0.056840   -0.014602
C      -1.385855   -0.616111   -0.066695
C      -1.585504   -0.770337   -1.576114
O      -0.293065   -1.077916   -2.099415
C       0.707239   -0.614333   -1.198568
H       0.627668    1.865900   -0.371468
H       0.515623   -0.118342    0.932998
H      -1.342269   -1.595219    0.420438
H      -2.150309   -0.007954    0.420192
H      -2.264937   -1.583103   -1.849609
H      -1.962078    0.165388   -2.012266
H       1.373521    0.096545   -1.708203
H       1.315543   -1.466442   -0.863230
