18

C       0.437142   -2.156134    0.000591
N       0.615175   -0.709433   -0.018601
C       0.849428   -0.111481   -1.337615
C      -0.263232    0.846733   -1.771702
O      -1.542542    0.236562   -1.726965
C       2.180663    0.611944   -1.164208
O       2.329098    1.811631   -1.139800
C       3.412351   -0.277695   -0.950784
O       3.450023   -1.447781   -1.231743
H      -0.384693   -2.504571   -0.646882
H       1.361737   -2.639878   -0.326169
H       0.228136   -2.478708    1.024470
H      -0.175331   -0.249354    0.416147
H       0.974084   -0.908040   -2.082788
H      -0.304569    1.690935   -1.076861
H      -0.033995    1.261369   -2.763218
H      -1.579207   -0.438364   -2.412406
H       4.294040    0.289380   -0.583972
