19

C      -0.092538    1.564798    0.031421
C       0.010350    0.033480   -0.006717
C      -1.395459   -0.596963    0.000337
C       0.854679   -0.482448   -1.200044
C       1.910264   -1.410008   -0.610076
O       2.716068   -2.096377   -1.187024
N       1.791956   -1.311810    0.769895
C       0.774995   -0.476957    1.223052
N       0.467684   -0.169408    2.414681
H       0.898502    2.029790    0.017271
H      -0.652902    1.930863   -0.835136
H      -0.601845    1.886510    0.942601
H      -1.967706   -0.255791   -0.868610
H      -1.342351   -1.690224   -0.036997
H      -1.931876   -0.314123    0.909184
H       0.269225   -1.024791   -1.946562
H       1.371202    0.326458   -1.726702
H       2.415603   -1.819836    1.380837
H       1.077383   -0.614890    3.101951
