19

C       0.008553    1.526309   -0.013690
C       0.006148    0.028203    0.025537
C       0.003675   -0.812982   -1.069525
N      -0.005210   -2.134576   -0.632003
C      -0.009005   -2.113553    0.728794
C       0.001004   -0.822852    1.173452
C      -0.052713   -0.834998    2.678331
C       0.257051   -2.348355    2.962317
N       0.024479   -3.132299    1.703638
H       0.879284    1.945074    0.505510
H       0.030203    1.894180   -1.043949
H      -0.880904    1.949932    0.468790
H       0.013812   -0.584512   -2.123482
H       0.060119   -2.946959   -1.218842
H       0.690990   -0.198951    3.169647
H      -1.035148   -0.532099    3.069762
H       1.313529   -2.456336    3.228739
H      -0.336947   -2.766318    3.778768
H      -0.860135   -3.632498    1.756042
