22

C      -0.061802    1.558065    0.152967
C      -0.011245    0.034922   -0.000193
C       0.713878   -0.487394   -1.268721
C       0.725864   -2.032040   -1.247580
C      -0.002557   -0.010423   -2.544827
O      -1.359027   -0.438295   -2.472659
C       2.160111    0.038748   -1.340871
N       2.952440   -0.254097   -0.267959
O       2.584726    0.678246   -2.287002
H       0.939640    2.000449    0.153375
H      -0.635383    2.023922   -0.653288
H      -0.545586    1.829120    1.096509
H       0.466887   -0.400648    0.886274
H      -1.030176   -0.362956   -0.023834
H      -0.297252   -2.402884   -1.343510
H       1.314340   -2.433808   -2.078781
H       1.145575   -2.426524   -0.316516
H       0.070852    1.080001   -2.629291
H       0.505349   -0.434547   -3.420661
H      -1.798631   -0.163673   -3.281668
H       2.648254   -0.838430    0.489538
H       3.919015    0.023848   -0.309057
