18

O      -0.068407    1.325152   -0.010723
C       0.017851   -0.067705   -0.033559
C       1.048089   -0.732183   -0.950710
C       0.372010   -2.071199   -1.353489
C      -0.740345   -2.254387   -0.307433
C      -0.147238   -2.287094    1.142644
C      -0.414271   -0.787478    1.240181
C      -1.274253   -0.823446   -0.021544
H       0.654100    1.659418    0.531556
H       1.233808   -0.086333   -1.813625
H       2.009720   -0.889498   -0.448448
H      -0.067650   -1.986812   -2.353380
H       1.069848   -2.914612   -1.369687
H      -1.460521   -3.037567   -0.543461
H      -0.786878   -2.851257    1.826836
H       0.885021   -2.642275    1.251243
H      -0.582780   -0.210739    2.143287
H      -2.245928   -0.394823   -0.226025
