22

C      -0.164027    1.590017    0.005075
C       0.111319    0.093113    0.008213
O       1.245334   -0.331454    0.004149
C      -1.130014   -0.794005    0.016256
C      -0.948368   -2.328769    0.000487
C      -0.182451   -2.799525    1.251685
C      -2.354071   -2.960301    0.007542
C      -0.205584   -2.775862   -1.273115
H       0.779154    2.137287    0.018730
H      -0.738821    1.870794   -0.884651
H      -0.767880    1.872803    0.874458
H      -1.720526   -0.500168    0.897033
H      -1.745246   -0.484590   -0.841826
H      -0.702202   -2.496167    2.168374
H      -0.107819   -3.892418    1.262997
H       0.826791   -2.385601    1.275109
H      -2.934931   -2.655021   -0.870396
H      -2.285484   -4.053354   -0.002355
H      -2.919139   -2.670103    0.900765
H       0.803641   -2.362434   -1.306792
H      -0.132047   -3.868354   -1.306779
H      -0.741357   -2.454681   -2.174381
