16

N       0.098635    1.415193    0.131423
C      -0.042668    0.024532    0.041125
C      -1.217148   -0.667188    0.005685
C      -1.188576   -2.090420    0.012746
C      -0.013047   -2.791392    0.021498
N       0.114967   -4.174945    0.078908
C       1.255974   -2.072737    0.027776
O       2.359913   -2.610488    0.011850
N       1.132136   -0.686106    0.059557
H       0.736358    1.802468   -0.556154
H      -0.792414    1.888873    0.065334
H      -2.158396   -0.134440   -0.032297
H      -2.131358   -2.629976    0.002045
H      -0.601611   -4.701444   -0.398039
H       1.054625   -4.463872   -0.165003
H       2.010777   -0.192630    0.140794
