18

C      -0.181042    1.522878    0.148827
C      -0.173105   -0.003584    0.247252
C       0.970755   -0.523923    1.141504
C       0.984501   -2.009472    1.250260
N       1.830604   -2.847190    0.727230
C       1.322757   -4.060789    1.139933
N       1.966174   -5.235664    0.849216
N       0.227960   -3.992511    1.862779
O       0.006012   -2.597664    1.943030
H       0.756562    1.899075   -0.274793
H      -0.998543    1.870356   -0.489640
H      -0.308448    1.983371    1.134686
H      -1.127744   -0.360364    0.648807
H      -0.070439   -0.443411   -0.751578
H       1.939802   -0.213726    0.742149
H       0.870672   -0.096663    2.146147
H       2.523697   -5.200884    0.009749
H       1.398302   -6.065014    0.934872
