18

C      -0.007884    1.631417   -0.033487
C       0.030790    0.113170    0.009820
C       1.065650   -0.678613   -0.810977
C       1.087788   -1.829481    0.238359
C       2.589767   -1.532365    0.477456
C       2.196864   -0.277025    1.155757
N       2.459323   -0.272608   -0.320006
C       0.688900   -0.645776    1.199350
O       0.066687   -0.890934    2.413628
H       0.995398    2.051198    0.088040
H      -0.405592    1.992074   -0.987919
H      -0.647597    2.034229    0.760418
H      -0.960160   -0.326016   -0.162165
H       1.014426   -0.799360   -1.891259
H       0.553568   -2.773687    0.189466
H       3.494094   -2.127593    0.503317
H       2.762713    0.404201    1.780887
H       0.119175   -0.093870    2.953181
