20

C       0.118027    1.572771    0.091816
C      -0.127481    0.067884   -0.067803
C       0.625229   -0.512431   -1.262265
C       2.167013   -0.631698   -1.095899
O       3.074227    0.121338   -0.854659
N       2.111205   -1.989785   -1.304864
C       0.667201   -2.046315   -1.440424
C      -0.230987   -3.093967   -0.865673
C      -0.096638   -2.925454   -2.375138
H       1.187025    1.779425    0.190194
H      -0.250473    2.125969   -0.779185
H      -0.395032    1.961922    0.976289
H       0.181893   -0.459738    0.842612
H      -1.201144   -0.127075   -0.188496
H       0.359545    0.012801   -2.185835
H       2.819814   -2.707220   -1.256013
H       0.225176   -3.969222   -0.414134
H      -1.155152   -2.780102   -0.391166
H      -0.930501   -2.497334   -2.922209
H       0.447173   -3.690233   -2.920448
