18

C      -0.177637    1.430938   -0.172308
N      -0.085387    0.095500    0.415889
C      -1.167048   -0.759253    0.264050
C      -1.285893   -2.088946    0.004042
C      -2.698647   -2.401470    0.078584
C      -3.359287   -3.725535   -0.134972
C      -3.306894   -1.229346    0.372041
O      -4.596266   -0.918889    0.621127
O      -2.392793   -0.208710    0.502512
H       0.731670    1.984872    0.072607
H      -0.305202    1.424399   -1.266114
H      -1.025443    1.959779    0.267431
H       0.773971   -0.377468    0.172641
H      -0.483235   -2.772114   -0.226930
H      -3.048953   -4.459815    0.618039
H      -4.446104   -3.625604   -0.075593
H      -3.109301   -4.147162   -1.115806
H      -4.883748   -0.220979    0.019288
