18

C      -0.149947    1.467000   -0.028443
C      -0.014231   -0.033192    0.181610
O       0.834531   -0.511104    0.912394
N      -0.906045   -0.797520   -0.519554
C      -0.982299   -2.233628   -0.379932
C      -2.413077   -2.653456    0.010433
O      -3.361488   -2.104904   -0.910922
C      -2.529207   -4.106247    0.115330
C      -2.603892   -5.305490    0.147853
H       0.800329    1.855944   -0.403311
H      -0.947526    1.744277   -0.722370
H      -0.336909    1.940987    0.938818
H      -1.645692   -0.358472   -1.043896
H      -0.709576   -2.738259   -1.316888
H      -0.263750   -2.529399    0.387052
H      -2.656242   -2.189849    0.973492
H      -3.383460   -2.683987   -1.681392
H      -2.679650   -6.363918    0.199619
