23

C      -0.044032    1.551594    0.099570
C       0.014702    0.017037   -0.024705
C       0.726864   -0.470696   -1.257893
C       1.997918   -0.885323   -1.321532
C       2.415685   -1.302725   -2.714183
C       1.116230   -1.203457   -3.508413
C      -0.052905   -2.047638   -3.063675
C       0.052394   -0.603197   -2.601277
C      -0.963356    0.411999   -3.072644
H       0.964979    1.974840    0.114628
H      -0.583613    2.007582   -0.735023
H      -0.550722    1.844635    1.024840
H       0.522215   -0.384949    0.859500
H      -1.006934   -0.384527   -0.005842
H       2.665124   -0.955464   -0.468260
H       3.188694   -0.635854   -3.121433
H       2.843494   -2.314091   -2.734019
H       1.161608   -0.922900   -4.554918
H      -0.803492   -2.276508   -3.814640
H       0.112806   -2.835396   -2.335396
H      -1.836823    0.447325   -2.410913
H      -0.537448    1.420732   -3.117676
H      -1.325522    0.160031   -4.074454
