19

O       0.131356    1.424508   -0.347369
C       0.048906    0.016160   -0.198054
C      -1.382522   -0.457939    0.083277
C      -1.492325   -1.952202    0.188260
C      -1.608479   -2.881003   -1.013842
C      -2.713450   -2.796257    0.024868
O      -2.715503   -3.734661    1.071933
C      -1.406380   -3.729173    1.611301
O      -0.821099   -2.474087    1.321442
H      -0.064697    1.822544    0.506688
H       0.398492   -0.406188   -1.146037
H       0.722200   -0.350037    0.589830
H      -1.738606   -0.011769    1.021548
H      -2.037041   -0.099401   -0.718295
H      -1.810432   -2.412313   -1.971620
H      -0.994848   -3.773033   -1.071172
H      -3.705644   -2.431331   -0.208804
H      -1.459812   -3.865011    2.696279
H      -0.808182   -4.540076    1.164313
