22

C      -0.210236    1.558713   -0.008701
C      -0.036775    0.034112   -0.008518
C       0.435968   -0.490154   -1.374361
O       1.563889    0.177517   -1.911328
C       2.819918   -0.197708   -1.376249
C       3.045948    0.303995    0.055056
C       2.245102   -0.474299    1.084229
C       1.418314    0.210984    2.120604
N       0.788174   -0.559719    1.059911
H       0.714715    2.084789   -0.253699
H      -0.952863    1.837881   -0.763670
H      -0.574277    1.912405    0.959934
H      -1.038019   -0.397231    0.139792
H       0.627615   -1.571493   -1.294732
H      -0.366377   -0.339714   -2.104932
H       2.940335   -1.293811   -1.414363
H       3.563998    0.242894   -2.048046
H       4.111687    0.203917    0.299247
H       2.815404    1.373670    0.087091
H       2.708505   -1.425451    1.351282
H       1.320341   -0.194643    3.125715
H       1.390358    1.297932    2.073032
