18

C       0.610970    1.220083    0.462837
N      -0.250786    0.374940   -0.354946
C       0.433268   -0.320947   -1.402640
C       1.290848   -1.577818   -1.093484
N       0.347294   -2.539364   -0.479148
C       0.428377   -2.432299   -1.949802
C      -0.461440   -1.242774   -2.345058
C      -1.882631   -1.348820   -2.054071
N      -3.012711   -1.441842   -1.829789
H       1.446198    0.687677    0.949677
H       1.039183    2.015156   -0.158429
H       0.012335    1.695558    1.244398
H      -0.739324   -0.301364    0.224452
H       0.988516    0.397624   -2.012817
H       2.355915   -1.641124   -0.909138
H       0.872776   -3.365334   -0.198343
H       0.673526   -3.285042   -2.568671
H      -0.327047   -0.957882   -3.391189
