21

C      -0.124696    1.373850   -0.022613
O      -0.021771   -0.029026   -0.021435
C       0.652912   -0.526909    1.114226
C       0.692653   -2.046528    1.018664
C       1.383679   -2.697033    2.221928
O       0.765962   -2.335564    3.448862
C       1.462210   -4.231423    2.053351
C       2.164824   -4.901001    3.139500
C       2.755289   -5.449375    4.030698
H       0.865334    1.857696   -0.029736
H      -0.664174    1.663050   -0.927992
H      -0.677839    1.745005    0.855032
H       1.678929   -0.120846    1.161612
H       0.143274   -0.219258    2.040045
H      -0.336077   -2.423365    0.934903
H       1.207746   -2.332804    0.094262
H       2.406087   -2.310299    2.308531
H      -0.122956   -2.708938    3.456615
H       0.439786   -4.628300    1.969695
H       1.952252   -4.459317    1.098208
H       3.273346   -5.931994    4.821736
