21

C      -0.186626    1.455245   -0.099888
C      -0.075722   -0.067215    0.027472
C       0.807402   -0.548855    1.195460
C       0.128666   -0.345705    2.563832
C       1.063533   -0.452277    3.774696
C       1.202044   -2.013622    0.989234
O       1.996171   -2.105835   -0.187329
H       0.800148    1.908861   -0.245802
H      -0.807235    1.731299   -0.958396
H      -0.634532    1.917235    0.786173
H      -1.078803   -0.503782    0.137384
H       0.340050   -0.473862   -0.899294
H       1.740843    0.032883    1.178570
H      -0.344471    0.642206    2.579049
H      -0.692317   -1.069673    2.665482
H       1.516087   -1.444584    3.865456
H       1.878797    0.276506    3.706079
H       0.521071   -0.256118    4.705093
H       1.761088   -2.385588    1.860334
H       0.288282   -2.625882    0.900058
H       2.187596   -3.033859   -0.348788
