23

C      -0.174293    1.548806    0.042788
C       0.010868    0.048373   -0.125878
O      -1.262060   -0.554307    0.012480
C      -1.348481   -1.981442    0.008899
C      -0.667646   -2.605425   -1.217035
C      -0.772091   -2.561285    1.311207
C      -2.876168   -2.247645   -0.016193
C      -3.550345   -1.798764   -1.227687
C      -4.120567   -1.448193   -2.226032
H       0.782122    2.067447   -0.074664
H      -0.873728    1.931608   -0.705627
H      -0.576446    1.777418    1.033821
H       0.443332   -0.167482   -1.113941
H       0.716962   -0.330374    0.628957
H       0.418566   -2.485104   -1.177794
H      -0.877928   -3.678813   -1.257624
H      -1.041850   -2.148923   -2.136427
H      -1.251477   -2.098593    2.179013
H      -0.932710   -3.642843    1.360079
H       0.305132   -2.387512    1.380930
H      -3.048828   -3.321708    0.122887
H      -3.312453   -1.739433    0.851693
H      -4.624029   -1.128578   -3.104288
