16

O      -0.651197    1.254380    0.328697
C      -0.333006   -0.078763    0.138869
C      -1.428649   -1.075967   -0.154151
O      -2.732305   -0.612138   -0.317246
C      -3.325563   -0.096673    0.792882
N      -4.525229    0.280828    0.726859
C      -0.440748   -0.699226   -1.256299
C      -0.858175    0.169588   -2.312634
C      -1.184080    0.967542   -3.152737
H      -0.899955    1.635318   -0.525948
H       0.495061   -0.399221    0.764326
H      -1.351573   -2.083872    0.248186
H      -2.663847   -0.066604    1.664804
H      -4.822762    0.644251    1.629971
H       0.291751   -1.455356   -1.520476
H      -1.496730    1.632426   -3.919931
