15

O       0.006288   -0.072030   -0.013536
C      -0.054388    1.134884    0.015368
C      -1.351733    1.922102    0.064716
C      -1.191215    3.293102    0.728595
C      -0.050624    4.074059    0.068818
C       1.249317    3.291133    0.019628
O       2.346308    3.798206   -0.005780
N       1.108778    1.903919   -0.013567
H      -1.693353    2.042585   -0.972601
H      -2.090064    1.294174    0.567540
H      -2.125025    3.857832    0.658166
H      -0.979796    3.163241    1.796550
H      -0.314243    4.323370   -0.968292
H       0.161476    5.018246    0.574565
H       1.975621    1.379890   -0.054817
