17

C      -0.215855    1.524885    0.093603
C       0.018954    0.002698   -0.002401
C       0.795302   -0.382806   -1.275549
C       2.279961   -0.060719   -1.209117
O       2.924251    0.287419   -2.175907
C       2.928970   -0.255255    0.114122
C       2.222928   -0.463361    1.235528
C       0.736123   -0.464460    1.261811
O       0.134810   -0.770422    2.270564
H       0.728807    2.078285    0.113029
H      -0.790959    1.871791   -0.769999
H      -0.773973    1.769122    1.001164
H      -0.956859   -0.491856   -0.002102
H       0.724706   -1.468464   -1.430767
H       0.376002    0.094630   -2.165059
H       4.014494   -0.213611    0.114320
H       2.702692   -0.631626    2.195633
