17

C       0.218037    1.541985    0.024605
C       0.111826    0.037599   -0.004640
O       0.838397   -0.497232   -1.111112
C       1.236157   -1.784000   -0.721914
C       2.484123   -1.877222    0.113695
C       1.116245   -1.830529    0.784837
O       0.707351   -0.528219    1.157950
C       0.581082   -2.923095    1.534425
C       0.145443   -3.848400    2.167000
H       1.267112    1.838289    0.094778
H      -0.214556    1.961242   -0.887155
H      -0.326352    1.935305    0.886557
H      -0.937752   -0.297225   -0.072435
H       0.914679   -2.595808   -1.364713
H       3.010294   -2.825537    0.129434
H       3.090307   -0.984390    0.210519
H      -0.244025   -4.661737    2.727711
