22

C       0.344266    1.375207    0.337116
C       0.007856   -0.065776   -0.065504
C      -1.495957   -0.252325   -0.300463
C       0.792113   -0.491573   -1.305767
O       2.180082   -0.439023   -1.016416
C       2.985081   -0.777617   -2.099190
C       3.339238    0.279326   -3.115827
C       4.364286   -0.206053   -2.107850
H       1.420063    1.496183    0.482806
H       0.025934    2.080633   -0.440665
H      -0.164754    1.653249    1.265657
H       0.319004   -0.732623    0.749757
H      -1.848372    0.380065   -1.124184
H      -1.740808   -1.290762   -0.548293
H      -2.066770    0.022133    0.592054
H       0.509268   -1.515365   -1.602586
H       0.555722    0.171297   -2.154929
H       2.846502   -1.798806   -2.458653
H       3.448406   -0.007759   -4.155938
H       2.925903    1.268834   -2.955493
H       4.610572    0.465409   -1.293337
H       5.182932   -0.830007   -2.448133
