17

N      -0.052001    1.321597    0.455206
C      -0.019851    0.115938    0.047675
C      -1.313934   -0.636083   -0.180695
C      -1.246629   -1.679268   -1.276277
C      -0.548250   -1.389657   -2.565898
C       0.094552   -2.328799   -1.547728
C       1.291231   -1.852063   -0.806163
O       2.350504   -2.441101   -0.780444
N       1.144654   -0.631657   -0.146961
H       0.887677    1.694696    0.608584
H      -1.567154   -1.131858    0.766042
H      -2.094079    0.104094   -0.370787
H      -2.107521   -2.338146   -1.324595
H      -0.922845   -1.845865   -3.474593
H      -0.095591   -0.413718   -2.705780
H       0.145436   -3.380625   -1.797649
H       2.013149   -0.259183    0.215106
