18

O      -0.078514    0.017179   -0.458529
C      -0.090120    1.187547   -0.138974
C      -1.308371    2.058593    0.164778
C      -0.759822    3.494075    0.182775
C       0.738257    3.318228    0.513832
N       1.023719    1.974758    0.035765
C       2.359708    1.412107    0.000790
C       3.021775    1.412053    1.306773
C       3.561556    1.434439    2.380059
H      -2.097973    1.884469   -0.567933
H      -1.697529    1.751551    1.142648
H      -0.864781    3.946848   -0.807411
H      -1.262923    4.144714    0.900336
H       1.369826    4.055154    0.004934
H       0.938545    3.400945    1.591124
H       2.242736    0.388048   -0.370434
H       2.979380    1.960787   -0.721801
H       4.042705    1.436232    3.326844
