22

C      -0.049804    1.350874   -0.231796
C       0.024207   -0.033198    0.417169
N      -1.267664   -0.697870    0.488529
C      -1.607640   -1.745353   -0.317481
O      -0.834815   -2.242137   -1.122051
C      -3.036219   -2.264352   -0.153525
C      -3.863972   -1.918852   -1.402203
C      -2.982544   -3.777627    0.080786
O      -4.310022   -4.232803    0.301669
H       0.941700    1.814113   -0.257564
H      -0.421576    1.276013   -1.257675
H      -0.716393    2.018953    0.324921
H       0.668978   -0.695165   -0.164561
H       0.444290    0.043197    1.427461
H      -1.970593   -0.317288    1.100845
H      -3.506861   -1.809544    0.727463
H      -3.360147   -2.294967   -2.297408
H      -4.851609   -2.378597   -1.332132
H      -3.986725   -0.836618   -1.509879
H      -2.523205   -4.252803   -0.795958
H      -2.341609   -3.994693    0.950071
H      -4.298612   -5.193906    0.309091
