21

C      -0.982383    1.023243    0.061997
C       0.093953   -0.064975   -0.098917
C       1.043403    0.257119   -1.226515
C       2.344103   -0.029160   -1.229573
C       3.055890   -0.716638   -0.095776
C       2.281789   -0.672372    1.208745
C       1.804786    0.658694    1.764762
C       0.819736   -0.343793    1.212898
O       0.063183   -1.077490    2.144571
H      -0.533251    1.984031    0.334074
H      -1.539752    1.162239   -0.869970
H      -1.707799    0.753384    0.837073
H      -0.424847   -1.002401   -0.352073
H       0.600251    0.739319   -2.095691
H       2.944322    0.221582   -2.100869
H       3.239638   -1.765028   -0.374140
H       4.052359   -0.274215    0.041805
H       2.579115   -1.402151    1.954962
H       1.828689    0.786023    2.841249
H       2.011433    1.553582    1.186455
H      -0.596419   -0.485621    2.522112
