14

O       0.031316    0.044370    0.039052
C      -0.001162    1.239279    0.021255
C      -1.204900    2.212070    0.042635
C      -0.367554    3.500838    0.020828
O       0.619435    3.195529   -1.016043
C       1.157660    2.257203   -0.038850
C       0.738031    3.248345    1.095831
C       1.659968    4.351897    1.293641
N       2.390194    5.227924    1.479664
H      -1.817155    2.114993   -0.856542
H      -1.834941    2.068144    0.924225
H      -0.853048    4.467372   -0.092578
H       2.176161    1.919624   -0.210005
H       0.427923    2.825524    2.055754
