18

C       0.090057    1.380175   -0.095077
O      -0.031990   -0.019026    0.039361
C       0.709710   -0.537523    1.109435
C       0.580846   -2.076671    1.058861
C       1.168522   -2.603766   -0.185546
N       1.636297   -3.021840   -1.154952
C       1.182447   -2.701926    2.236240
C       1.678946   -3.190193    3.216664
C       2.280534   -3.796329    4.394823
H       1.133591    1.679602   -0.274017
H      -0.516661    1.675305   -0.953484
H      -0.274722    1.907682    0.799702
H       1.770985   -0.253333    1.045424
H       0.322667   -0.190262    2.080021
H      -0.494215   -2.299558    1.025789
H       3.045730   -4.526558    4.111109
H       2.758009   -3.041415    5.028466
H       1.530207   -4.315751    5.000238
