21

C       0.034195    1.551100   -0.020981
C       0.031333    0.019310    0.001538
C      -1.424889   -0.504118    0.044242
C       0.749709   -0.543005   -1.254310
C       1.103920   -2.002320   -1.155115
C       1.199591   -2.658252   -0.000525
C       0.972728   -2.005376    1.336116
C       0.753787   -0.496493    1.253290
O       1.121167    0.236794    2.141844
H       1.054199    1.943807    0.006917
H      -0.453712    1.916978   -0.930766
H      -0.495244    1.957970    0.843845
H      -1.983031   -0.103727   -0.808809
H      -1.470539   -1.594834   -0.010097
H      -1.932400   -0.179391    0.958173
H       0.109249   -0.370690   -2.129496
H       1.662521    0.040866   -1.443334
H       1.302044   -2.523978   -2.088186
H       1.464876   -3.712440    0.010303
H       0.093412   -2.445997    1.831808
H       1.809953   -2.179259    2.021079
