20

C      -0.113212    1.582242   -0.031182
C       0.074634    0.063411   -0.006036
C       0.867232   -0.508268   -1.218407
O       1.884034    0.379852   -1.665968
C       1.475008   -1.823361   -0.677917
C       1.604929   -1.536499    0.799660
C       0.845204   -0.504977    1.182643
C       0.674688    0.016700    2.575160
H       0.846268    2.105883   -0.031564
H      -0.651570    1.889487   -0.932995
H      -0.689886    1.922287    0.834762
H      -0.925780   -0.399563   -0.010446
H       0.226034   -0.661296   -2.090608
H       2.511929    0.479675   -0.940670
H       0.806295   -2.677970   -0.856860
H       2.420139   -2.049428   -1.183322
H       2.209869   -2.139270    1.469466
H       1.285277   -0.542001    3.289829
H       0.949696    1.075869    2.647588
H      -0.372558   -0.052360    2.898006
