21

C      -0.008723    1.697562    0.315315
C      -0.034261    0.197346   -0.004583
C       0.757043   -0.611936    1.025744
O       2.102562   -0.156610    1.014590
C      -1.453409   -0.332503   -0.088444
C      -2.400635   -0.118727   -1.259068
C      -1.659800   -0.311567   -2.578443
O      -1.114486   -1.584590   -2.137165
C      -1.875391   -1.500580   -0.927174
H       1.019932    2.057572    0.385610
H      -0.529646    2.271979   -0.457012
H      -0.503909    1.902129    1.272750
H       0.458683    0.029707   -0.968166
H       0.303846   -0.482846    2.024140
H       0.697371   -1.680867    0.770186
H       2.600518   -0.672461    1.654793
H      -1.999194   -0.295301    0.855263
H      -3.390010    0.304485   -1.149844
H      -2.331646   -0.462686   -3.430729
H      -0.878554    0.408565   -2.848033
H      -2.353248   -2.407083   -0.572034
