18

C      -0.214446    1.309123   -0.216517
C      -0.048636   -0.072522    0.329683
C      -1.058933   -0.960922    0.497555
C      -1.791015   -1.348783   -0.805894
C      -0.713112   -2.489355   -0.820987
C       0.704163   -2.228032   -0.156506
C       1.266946   -0.832675    0.159435
C      -0.519326   -2.394067    0.665197
H       0.263137    1.417516   -1.200204
H      -1.270144    1.580509   -0.304032
H       0.262448    2.050781    0.438259
H      -2.784900   -1.799375   -0.699352
H      -1.809047   -0.602242   -1.606333
H      -0.824088   -3.409434   -1.391538
H       1.385608   -3.065321   -0.300483
H       1.834982   -0.366405   -0.655761
H       1.944082   -0.881899    1.024947
H      -0.742635   -3.105489    1.449658
