27

C      -0.190594    1.547819    0.014463
C       0.067220    0.042506   -0.014242
C       0.964419   -0.444984   -1.161047
C       1.335333   -1.873001   -0.738067
C       2.430142   -2.526729   -1.582009
C       1.603978   -1.766808    0.806595
C       1.116087   -3.032693    1.527093
C       3.094169   -1.552043    1.126863
C       0.783715   -0.504169    1.242183
H       0.750781    2.103519    0.100673
H      -0.694241    1.884736   -0.898246
H      -0.821205    1.830518    0.864588
H      -0.899948   -0.470512   -0.113195
H       0.475087   -0.403793   -2.140288
H       1.866836    0.180394   -1.225068
H       0.427165   -2.482457   -0.853694
H       3.352466   -1.937149   -1.582788
H       2.676261   -3.531677   -1.221584
H       2.103392   -2.624927   -2.622823
H       1.621036   -3.928419    1.146422
H       1.311402   -2.977496    2.604123
H       0.038296   -3.174172    1.390176
H       3.504232   -0.686740    0.594820
H       3.227390   -1.369399    2.199026
H       3.698596   -2.425899    0.863143
H       1.462123    0.262801    1.635243
H       0.077998   -0.733174    2.047332
