18

C      -0.071982    1.528293   -0.058583
C      -0.036988    0.015371    0.003864
C      -1.218442   -0.698406   -0.621307
N       1.308352   -0.564828   -0.152326
C       0.661858   -0.635311    1.151117
C       1.192558   -0.134567    2.488597
O       0.693008   -1.367631    3.114644
C       0.254541   -1.870863    1.911603
O      -0.234911   -2.933897    1.689733
H       0.840754    1.959353    0.359278
H      -0.155971    1.861604   -1.098639
H      -0.933453    1.921521    0.491363
H      -1.241965   -0.511662   -1.700934
H      -1.171836   -1.776249   -0.448465
H      -2.160527   -0.330057   -0.202110
H       1.263797   -1.478563   -0.602294
H       2.278969   -0.068399    2.571258
H       0.707638    0.742042    2.922677
