17

C      -0.416716    1.585843    0.050310
C       0.028101    0.128328    0.071903
N       1.289741   -0.160657   -0.659003
C       1.745591   -1.096624    0.394803
C       0.724416   -0.444910    1.375474
N       1.188476    0.584680    2.278296
C      -1.076983   -0.752127   -0.344698
N      -1.922085   -1.459848   -0.696701
H       0.397155    2.225861    0.392236
H      -0.693349    1.879968   -0.966574
H      -1.279902    1.737261    0.703753
H       1.179588   -0.547989   -1.590359
H       1.525496   -2.154148    0.198005
H       2.804509   -0.993173    0.655833
H       0.103569   -1.144477    1.935396
H       1.533358    0.169547    3.136946
H       1.957873    1.105792    1.868747
