22

C      -0.237678    1.381487   -0.324466
C      -0.133678   -0.135443   -0.117455
C       0.834503   -0.461442    1.028392
C      -1.537572   -0.733733    0.111048
C      -1.599299   -2.244735    0.182320
C      -2.863196   -2.974506   -0.184068
N      -1.694470   -3.055442   -1.026182
C      -1.649238   -2.632078   -2.339855
O      -2.545629   -2.758386   -3.139437
H       0.745346    1.820260   -0.522725
H      -0.892104    1.627600   -1.167207
H      -0.645106    1.871153    0.568335
H       0.273300   -0.573502   -1.039615
H       1.815787   -0.012370    0.845391
H       0.460924   -0.063980    1.980038
H       0.984750   -1.538159    1.151059
H      -1.942201   -0.333706    1.051725
H      -2.210928   -0.392558   -0.685613
H      -0.983585   -2.700552    0.955586
H      -3.137059   -3.883784    0.343877
H      -3.697957   -2.389382   -0.562489
H      -0.653850   -2.228614   -2.607287
