20

C      -0.459307    1.458159    0.249011
N      -0.059742    0.070356    0.091284
C       0.339469   -0.404452   -1.229221
C       1.673841    0.161606   -1.688359
C       1.650724   -0.938564   -0.670568
O       2.349083   -2.107055   -0.899203
C       1.214920   -0.430329    0.707103
C       2.137216    0.520316    1.447635
O       1.535463    0.831131    2.699114
H       0.222527    2.190329   -0.218490
H      -1.447252    1.596260   -0.203686
H      -0.528759    1.689626    1.314456
H      -0.379879   -0.841097   -1.913754
H       1.985377   -0.183067   -2.669799
H       1.980319    1.175947   -1.449009
H       1.866131   -2.832042   -0.485771
H       0.982236   -1.259563    1.390818
H       3.105454    0.011701    1.582881
H       2.321323    1.429615    0.859077
H       2.092703    1.471663    3.150976
