15

O      -0.168974    1.445674   -0.203566
C       0.017951    0.059098    0.034897
C      -1.334832   -0.583200    0.025515
C      -1.761720   -1.911557    0.003858
C      -0.946111   -3.113049   -0.052370
O      -1.379992   -4.245354   -0.059888
C      -3.180612   -1.820696    0.041374
N      -3.596768   -0.567042    0.079559
N      -2.451995    0.161303    0.074906
H       0.662683    1.899708   -0.042955
H       0.655014   -0.403790   -0.733062
H       0.503069   -0.116914    1.007435
H       0.153238   -2.929555   -0.092206
H      -3.887025   -2.636611    0.037544
H      -2.483860    1.168095    0.073552
