15

N      -0.315442    1.353578   -0.045576
C      -0.165334    0.000825    0.012410
C      -1.093556   -1.018403    0.055565
C      -2.588942   -0.870006   -0.009113
C      -2.913160   -0.248945   -1.355668
O      -2.870675    0.942619   -1.564110
C      -0.275113   -2.169804    0.168550
N       1.006031   -1.903241    0.203864
O       1.073494   -0.489756    0.098380
H       0.507470    1.870295   -0.317746
H      -1.178379    1.661263   -0.480252
H      -3.072284   -1.845956    0.089227
H      -2.963881   -0.208989    0.781314
H      -3.126601   -0.959602   -2.182053
H      -0.589610   -3.203304    0.235885
