18

C       0.028227    1.513279    0.086193
C      -0.021122    0.017027   -0.036074
C      -0.070010   -0.632643   -1.199552
C      -0.066707   -2.135284   -1.292389
C       0.410658   -2.718245    0.047996
O      -0.293314   -2.131982    1.127274
C      -0.003779   -0.749897    1.264453
C       0.211490   -4.172109    0.117288
N       0.074089   -5.318476    0.129753
H       0.920204    1.838739    0.636908
H       0.044678    1.992659   -0.895676
H      -0.838099    1.896614    0.640056
H      -0.104505   -0.076851   -2.133148
H      -1.066228   -2.523301   -1.525009
H       0.597331   -2.476259   -2.095151
H       1.491775   -2.526064    0.153143
H       0.971020   -0.610946    1.767089
H      -0.768251   -0.359632    1.946177
