18

N      -0.068505    1.336796    0.061934
C       0.032218   -0.032154   -0.006129
O       1.106809   -0.600732   -0.084708
C      -1.271093   -0.752716   -0.005958
C      -1.366888   -2.084521    0.106497
C      -2.797604   -2.563660    0.075080
C      -3.611192   -1.269099    0.026475
C      -3.483665   -0.294917    1.167142
C      -2.625397   -0.114826   -0.073080
H       0.792343    1.840071    0.208881
H      -0.918361    1.767265    0.386001
H      -0.511809   -2.738255    0.227333
H      -2.981647   -3.190471   -0.808198
H      -3.042927   -3.186450    0.945265
H      -4.531328   -1.253833   -0.545166
H      -4.308207    0.394924    1.315194
H      -2.987444   -0.611883    2.079269
H      -2.798840    0.734543   -0.725392
