16

O       0.192223    1.359726    0.002467
C       0.021488   -0.026081   -0.004604
C      -1.341727   -0.644684    0.069306
C      -2.605030    0.102002   -0.330798
C      -2.647504    1.543076   -0.714891
N      -2.519206    0.479683   -1.740322
C      -1.213740    0.141602   -2.217230
O      -0.760771    0.498888   -3.271242
C      -0.520229   -0.763707   -1.210391
H       0.878990    1.577994   -0.638156
H       0.791745   -0.566301    0.546263
H      -1.473986   -1.480081    0.746009
H      -3.531576   -0.382802   -0.034456
H      -3.605305    2.055548   -0.730962
H      -1.780622    2.156490   -0.515371
H      -0.015421   -1.650914   -1.573497
