21

C       0.019778    1.641575   -0.084067
C      -0.225270    0.139081   -0.268337
C       0.787805   -0.494928   -1.212826
C       2.224752   -0.726974   -0.703997
O       2.172362   -2.131468   -1.023776
C       0.779350   -2.049850   -1.447016
C      -0.105362   -2.907677   -0.543948
C       0.618892   -2.437056   -2.846294
C       0.469400   -2.743326   -3.999391
H       1.015701    1.835160    0.329479
H      -0.051322    2.173757   -1.038835
H      -0.713170    2.080201    0.599481
H      -0.189847   -0.356450    0.708846
H      -1.237186   -0.020800   -0.661213
H       0.773476    0.031312   -2.170412
H       3.025449   -0.213273   -1.247816
H       2.365193   -0.561220    0.373270
H       0.038865   -2.637637    0.504595
H      -1.161689   -2.790884   -0.803462
H       0.165488   -3.959313   -0.669619
H       0.347939   -3.018084   -5.018115
