18

O      -0.983500    1.320676   -0.141041
C       0.146657    0.950297   -0.335506
C       1.370367    1.788135   -0.066372
C       1.431849    2.884454    0.986117
C       1.484028    2.181467    2.417178
C       2.922525    2.743182    2.579845
C       2.955077    2.580792    1.061877
N       2.530532    1.124026    0.661279
C       1.831674    0.759989    1.941078
H       0.366512   -0.056124   -0.762107
H       1.742470    2.146035   -1.037296
H       0.991703    3.876725    0.904245
H       0.709918    2.326371    3.167909
H       2.934444    3.806785    2.834102
H       3.629309    2.197614    3.211822
H       3.714477    2.987380    0.396526
H       2.512826    0.235253    2.615360
H       0.975059    0.109653    1.746201
