16

C      -0.063183    1.519318    0.052775
C       0.080746    0.020041   -0.029639
O      -0.737303   -0.721585    0.905076
C       0.676580   -0.741175    1.106055
C       1.367177   -2.051109    0.856137
O       2.024819   -2.628898    1.697166
N       1.215601   -2.546697   -0.427066
C       0.699206   -1.830473   -1.499196
C       0.191793   -0.598896   -1.369459
H       0.800359    2.016073   -0.400790
H      -0.961106    1.844226   -0.483671
H      -0.151206    1.841550    1.092779
H       1.031276   -0.229766    1.998697
H       1.676889   -3.428826   -0.593643
H       0.754104   -2.343549   -2.451721
H      -0.174902   -0.065092   -2.236628
