17

O       0.234363    0.246847    1.192302
C      -0.233748    0.330143   -0.148050
C      -1.492159   -0.394987   -0.271307
C      -2.539583   -0.975194   -0.391459
C      -3.781542   -1.725646   -0.516681
C      -3.565985   -3.223231   -0.254743
O      -4.790878   -3.932722   -0.456590
C      -5.432531   -4.414136    0.626563
O      -6.475862   -4.988504    0.556793
H       1.060052    0.739681    1.238977
H      -0.394339    1.377489   -0.451773
H       0.497881   -0.096104   -0.853809
H      -4.533039   -1.343427    0.185566
H      -4.204596   -1.603182   -1.520809
H      -2.837710   -3.634134   -0.957818
H      -3.190042   -3.384389    0.762456
H      -4.882003   -4.223203    1.569188
