21

C       0.086185    1.542181    0.080588
C      -0.047209    0.024582   -0.061155
C      -1.463729   -0.524126    0.039953
C      -2.563334    0.303248    0.571149
O      -2.424310    0.091145   -0.836818
C      -1.593405   -2.039283    0.117449
C      -2.995505   -2.609480    0.161288
C      -0.501604   -2.898855   -0.377579
O      -0.666426   -2.663760    1.022876
H       1.108929    1.852587   -0.151289
H      -0.586640    2.058528   -0.610612
H      -0.135770    1.879283    1.097673
H       0.348278   -0.269745   -1.041072
H       0.563224   -0.485485    0.691207
H      -3.431841   -0.163230    1.028958
H      -2.359969    1.315904    0.909133
H      -3.606191   -2.177186   -0.635114
H      -2.966222   -3.694273    0.039563
H      -3.473277   -2.397290    1.122472
H      -0.743411   -3.906771   -0.712670
H       0.395549   -2.473858   -0.819619
