16

C      -0.025655    1.561050    0.038701
N       1.444116    1.780835    0.155144
C       1.993180    0.755307   -0.420104
N       2.566580   -0.205538    0.496552
C       1.218366   -0.906071    0.530242
C       0.857222   -1.501757   -0.849036
N      -0.624674   -1.238001   -0.562343
C       0.100351    0.021821   -0.188512
C       1.107774   -0.051748   -1.370221
H      -0.482887    1.902914    0.972035
H      -0.565141    2.025880   -0.799498
H       3.222994   -0.835436    0.033036
H       0.980712   -1.434547    1.451068
H       1.174469   -2.457650   -1.267399
H      -1.119367   -1.092216   -1.446981
H       0.794496    0.300381   -2.349998
