16

C      -0.112440    1.381520   -0.004908
N      -0.020538   -0.061304   -0.094776
C       0.511296   -0.671284    0.861736
O       0.658769   -2.023019    0.810846
C       1.102035   -2.657192    2.012443
C      -0.142222   -3.081728    2.822089
O      -0.287292   -2.840362    3.987314
C       1.882731   -3.838730    1.681053
C       2.481223   -4.855563    1.456692
H       0.422499    1.834131   -0.847056
H      -1.161242    1.685156   -0.093016
H       0.293794    1.799718    0.930057
H       0.907257   -0.206790    1.777947
H       1.685902   -1.966480    2.634197
H      -0.896514   -3.616879    2.209097
H       3.028993   -5.741718    1.246999
