17

C      -0.041735    1.491483   -0.051231
C       0.054448   -0.008266   -0.031721
C       0.666170   -0.962634   -1.150592
C       0.185822   -1.905304   -0.027018
N      -0.025268   -3.236736    0.599321
C      -0.577557   -2.817420    1.674552
N      -0.731820   -1.323287    1.774463
C       0.595259   -0.932400    1.089604
C      -1.049735   -1.048328    0.289090
H       0.949416    1.950978   -0.129003
H      -0.637663    1.839140   -0.901858
H      -0.514282    1.856354    0.866365
H       0.127498   -1.000496   -2.101418
H       1.744606   -0.886569   -1.314495
H      -0.926672   -3.449132    2.483206
H       1.541182   -0.889448    1.632266
H      -2.057507   -1.143058   -0.118978
