17

C      -0.003608    1.555369   -0.023444
C      -0.002383    0.025893    0.021339
N       0.695054   -0.510998    1.183865
C       2.054727   -0.715835    1.271580
C       2.351947   -1.151209    2.536369
C       1.116920   -1.211596    3.254045
C       0.119010   -0.805049    2.381940
C       0.927835   -1.618752    4.596611
N       0.779372   -1.951552    5.696813
H       1.016959    1.946650   -0.059625
H      -0.537038    1.903811   -0.912865
H      -0.497077    1.970795    0.859640
H      -1.025888   -0.359115    0.042690
H       0.475901   -0.384565   -0.873160
H       2.690572   -0.537332    0.419160
H       3.324848   -1.413945    2.918896
H      -0.943960   -0.713096    2.535135
