14

O       0.081984    1.360350    0.005924
C       0.061731    0.011445   -0.056904
C      -0.002758   -0.761886   -1.185885
N       0.003867   -2.069777   -0.707690
C       0.069780   -1.992320    0.635916
N       0.095699   -3.108654    1.465942
C       0.058256   -4.403811    1.044725
O      -0.002885   -4.751433   -0.120358
N       0.107055   -0.751412    1.080404
H       0.130000    1.588609    0.941639
H      -0.050243   -0.526126   -2.233064
H      -0.032049   -2.945753   -1.207789
H       0.146146   -2.904584    2.452716
H       0.089888   -5.115626    1.887269
