15

O      -0.854056    1.268742    0.020659
C       0.272647    0.865604   -0.131965
C       1.473095    1.733102   -0.054798
C       1.427877    3.138702    0.472537
C       1.797125    2.961322   -0.974940
C       3.210232    2.368816   -1.098649
N       2.817731    1.203299   -0.255629
C       1.032969    3.492695   -2.051747
N       0.443862    3.936192   -2.943925
H       0.505522   -0.194191   -0.366478
H       0.425122    3.515187    0.642805
H       2.188966    3.469945    1.174586
H       3.462032    2.059975   -2.115771
H       4.009652    3.002899   -0.700366
H       3.351864    1.109846    0.604383
