15

N       0.042955   -1.124192   -0.041714
C       0.029068    0.030864   -0.000008
C       0.027027    1.476453    0.076089
C      -0.899090    2.168981    1.062212
C      -0.704815    3.458785    0.791090
C       0.314764    3.427449   -0.324397
C       1.357817    2.306849   -0.032295
C       1.345740    2.009940   -1.534536
N      -0.144323    2.269762   -1.274010
H      -1.555659    1.675953    1.762748
H      -1.167685    4.334402    1.221305
H       0.614823    4.341951   -0.833763
H       2.183868    2.311526    0.687832
H       1.796579    2.748012   -2.201493
H       1.562388    0.992567   -1.866227
