15

O       0.037046    1.330410    0.094845
N       0.022134   -0.045522    0.007982
C      -1.136784   -0.588774    0.023648
C      -1.165314   -2.099262   -0.075741
N      -2.147623   -2.622074   -1.024157
C      -3.183741   -1.910228   -1.192082
N      -3.439345   -0.682523   -0.593125
C      -2.466575    0.084724    0.063778
N      -2.673183    1.211646    0.620579
H       0.978557    1.525785    0.018278
H      -0.167263   -2.452402   -0.343171
H      -1.399038   -2.528809    0.911958
H      -3.983888   -2.255347   -1.846107
H      -4.340220   -0.253111   -0.743254
H      -3.654042    1.492279    0.536609
