20

C       2.162102   -0.736359    2.552064
C       1.191896   -1.080770    1.444992
C       0.171258   -0.091719    0.931563
C       0.127559    1.246308    1.449954
C       0.071313    2.377227    1.868897
C      -0.038691    3.759729    2.331410
O       0.033953    4.719552    1.285310
N       1.291485   -0.563447    0.088625
C       2.356756    0.366516   -0.265046
H       3.117967   -1.249564    2.400446
H       2.351188    0.335660    2.627005
H       1.756643   -1.070235    3.512645
H       0.860711   -2.119349    1.465827
H      -0.794505   -0.479335    0.612200
H      -0.967692    3.871097    2.913833
H       0.787345    3.999491    3.010331
H      -0.600175    4.456322    0.610145
H       2.085045    0.862612   -1.201733
H       2.562855    1.144906    0.480211
H       3.272700   -0.206481   -0.439509
