19

C       0.057068    1.527702   -0.193408
C      -0.062941    0.032343    0.000168
C      -1.141955   -0.649439   -0.811544
O       1.200573   -0.674700    0.039572
C       0.439260   -0.593721    1.231075
C       0.974300    0.055254    2.522004
C       0.363588   -1.135912    3.287468
O       0.241515   -1.397973    4.447238
C      -0.068463   -1.838162    1.984412
H       0.878394    1.937128    0.398343
H       0.246910    1.759902   -1.246883
H      -0.870832    2.032477    0.097012
H      -0.982136   -0.471573   -1.880463
H      -1.140163   -1.728215   -0.642386
H      -2.130518   -0.254861   -0.552324
H       2.067879    0.083800    2.575804
H       0.582679    1.038776    2.797460
H      -1.133458   -2.077336    1.912710
H       0.510897   -2.743324    1.773107
