19

C       0.112093    1.484007    0.215828
C       0.154611   -0.025530   -0.026651
C       0.654494   -0.457969   -1.439319
C      -0.257140    0.076319   -2.568377
C       2.025969    0.020471   -1.643324
N       3.119212    0.365992   -1.799821
C       0.583299   -2.015850   -1.478714
N       1.755095   -2.682035   -1.607396
O      -0.496131   -2.563872   -1.379993
H       1.094129    1.943593    0.065061
H      -0.603329    1.986808   -0.440776
H      -0.194247    1.684271    1.246645
H       0.803568   -0.496884    0.720149
H      -0.837164   -0.470434    0.091481
H      -0.293437    1.166964   -2.561613
H       0.107343   -0.246676   -3.547010
H      -1.260322   -0.327319   -2.420671
H       2.637444   -2.209939   -1.712105
H       1.724891   -3.688274   -1.633495
