20

C      -0.639241    1.329874   -2.448839
C      -0.258577   -0.110772   -2.185445
C       1.080995   -0.701272   -2.464143
C       2.235530    0.228410   -2.669757
O       3.336780   -0.092487   -1.801134
C       2.454427    0.979464   -1.424852
C       3.070527    2.346733   -1.316893
C       1.403304    0.509681   -0.419313
N       0.600647   -0.553401   -1.066939
H       0.213843    2.009969   -2.465268
H      -1.140623    1.404361   -3.419528
H      -1.344384    1.686599   -1.689502
H      -1.098226   -0.792841   -2.313151
H       1.170203   -1.717422   -2.840859
H       2.506597    0.603903   -3.653880
H       3.788610    2.511637   -2.123729
H       2.304394    3.128428   -1.360095
H       3.601407    2.453423   -0.364380
H       1.884546    0.083265    0.467416
H       0.766747    1.338164   -0.088351
