19

C      -0.054453    1.521731    0.120514
C      -0.039057    0.004025    0.058071
O      -1.372444   -0.453840   -0.045980
C      -1.464307   -1.866212   -0.097849
C      -2.888026   -2.283381   -0.138534
C      -3.684804   -2.782037   -1.123007
C      -4.975207   -2.991304   -0.538180
C      -4.861282   -2.602687    0.758508
O      -3.600799   -2.174082    1.020525
H       0.964786    1.910864    0.203653
H      -0.513536    1.937688   -0.780722
H      -0.629549    1.862782    0.985873
H       0.552352   -0.342222   -0.807464
H       0.438659   -0.416820    0.959703
H      -0.957444   -2.258490   -0.994006
H      -0.965956   -2.308179    0.781398
H      -3.388665   -2.972976   -2.142810
H      -5.860524   -3.376943   -1.018584
H      -5.547951   -2.570880    1.588447
