17

C      -0.016687    1.449910   -0.024914
N      -0.018766   -0.002117   -0.025968
C       0.550786   -0.626761    0.948160
C       1.225472   -0.012180    2.106607
N       1.793609   -0.651185    3.077408
N       1.788800   -1.998793    3.015008
C       1.187958   -2.723673    2.011098
N       1.226246   -4.105834    2.201230
C       0.590420   -2.073418    0.981867
H       0.995730    1.884585   -0.008993
H      -0.505461    1.805118   -0.936816
H      -0.568009    1.880773    0.826098
H       1.265152    1.066921    2.198793
H       2.088909   -2.455090    3.860920
H       2.147474   -4.461022    2.430457
H       0.847712   -4.611359    1.411686
H       0.145159   -2.623565    0.161995
