17

O      -0.228475    0.330449    0.210308
C       0.230928    1.377113    0.539878
O       0.828518    2.216330   -0.352059
C       1.330767    3.404102    0.121232
N       1.871531    4.190664   -0.689509
C       2.415745    5.459440   -0.221845
C       2.426391    5.710100    1.269331
C       2.222980    7.074758    1.809432
N       1.177875    6.049715    1.982697
H       0.225322    1.775354    1.570389
H       1.192881    3.551646    1.196961
H       3.439529    5.527941   -0.612004
H       1.854296    6.257370   -0.727774
H       3.065218    5.036344    1.838764
H       2.724803    7.376805    2.723716
H       2.046303    7.881989    1.102961
H       0.434622    6.213091    1.305830
