16

C       0.012784    1.564783   -0.093388
C      -0.010132    0.070555   -0.001357
C       0.466359   -1.082778   -0.863195
O       1.099870   -1.772391    0.205018
C       0.458404   -0.853627    1.156563
C      -0.785685   -1.583249    1.597861
N      -1.045887   -2.030901    2.745799
O      -1.569365   -1.722547    0.472908
C      -1.013524   -0.906564   -0.545085
H       1.020568    1.960946    0.068929
H      -0.321148    1.895441   -1.081955
H      -0.653735    2.017224    0.649379
H       0.898828   -1.157386   -1.854617
H       1.130684   -0.512301    1.939376
H      -1.940814   -2.524400    2.749748
H      -1.724511   -0.640501   -1.316638
