21

C      -0.114155    1.511152    0.002951
C       0.008457    0.017685   -0.005957
C       0.873627   -0.820222   -0.986625
C       1.132366   -2.127819   -0.262521
C       0.945809   -1.953771    1.232809
C      -0.144102   -0.898701    1.201192
C      -1.049744   -1.075568   -0.010743
C      -2.546437   -1.001691   -0.008052
C      -0.179807   -1.908573   -0.991368
H       0.824408    1.988692    0.311471
H      -0.371066    1.900831   -0.989344
H      -0.893770    1.839546    0.698331
H       1.473707   -0.437572   -1.801681
H       1.854166   -2.824667   -0.673098
H       0.620560   -2.878532    1.723921
H       1.857321   -1.600772    1.729498
H      -0.570186   -0.490270    2.111519
H      -2.903098   -0.236342    0.689250
H      -2.939935   -0.753112   -1.000962
H      -2.994488   -1.956695    0.294186
H      -0.539131   -2.517132   -1.810743
