17

N      -0.286308   -1.226538   -0.121496
C      -0.147571   -0.080660   -0.073149
C       0.009895    1.389048   -0.018942
C      -0.664284    1.975356    1.227855
C      -0.125581    1.419614    2.544419
C       1.300912    1.876790    2.862984
N       2.373967    1.473801    1.973631
C       2.356488    1.454556    0.720374
O       1.377277    1.738504   -0.211066
H      -0.484353    1.794926   -0.907530
H      -0.538419    3.063736    1.184629
H      -1.736890    1.769863    1.138004
H      -0.774813    1.748196    3.363865
H      -0.168793    0.324085    2.531225
H       1.321115    2.975988    2.917307
H       1.566167    1.521997    3.864341
H       3.273368    1.235752    0.173726
