23

O      -0.020165    1.416256   -0.080834
C      -0.014789   -0.004239   -0.001615
C       0.734538   -0.502165    1.242996
C       0.672026   -2.031659    1.365842
C      -0.780823   -2.527826    1.362222
C      -1.532389   -2.017551    0.123163
C      -1.453152   -0.502882    0.006099
C      -2.504975    0.330817    0.698192
C      -2.488578    0.221071   -0.810378
H       0.891507    1.717471   -0.024158
H       0.481218   -0.422590   -0.896897
H       1.779491   -0.165544    1.202348
H       0.279482   -0.032974    2.124331
H       1.212339   -2.486706    0.523870
H       1.187881   -2.357249    2.275812
H      -0.809033   -3.622646    1.399002
H      -1.289228   -2.167139    2.265991
H      -1.097830   -2.476862   -0.777064
H      -2.581991   -2.330745    0.154002
H      -3.286488   -0.186885    1.245382
H      -2.197501    1.277352    1.125862
H      -2.172152    1.095943   -1.365538
H      -3.258669   -0.373272   -1.292112
