15

C       0.106531    1.479761    0.043363
C      -0.035279   -0.012063   -0.053106
N       0.110960   -0.604380   -1.192439
C      -0.027163   -1.992078   -1.244663
O       0.087214   -2.643968   -2.253305
N      -0.321275   -2.641260   -0.025988
C      -0.483681   -2.040095    1.205860
N      -0.747492   -2.557990    2.337827
N      -0.319295   -0.658233    1.115683
H       0.913235    1.746665    0.734794
H       0.328841    1.879644   -0.944261
H      -0.817415    1.931711    0.420349
H      -0.417048   -3.644069   -0.089861
H      -0.845261   -3.568902    2.281132
H      -0.425599   -0.157012    1.984552
