20

C      -0.010885    1.386763    0.029569
O      -0.023296   -0.021060   -0.006318
C       0.638583   -0.547492   -1.134096
C       0.557942   -2.074948   -1.063555
C      -0.893553   -2.564579   -1.123121
C       1.419856   -2.685869   -2.191801
O       2.766475   -2.242696   -2.182597
C       1.367663   -4.163087   -2.159930
N       1.358504   -5.317388   -2.105290
H       1.015565    1.784864    0.056922
H      -0.523831    1.821889   -0.842538
H      -0.534476    1.694676    0.937613
H       0.161828   -0.190079   -2.065527
H       1.688058   -0.220353   -1.158730
H       0.998073   -2.383620   -0.105289
H      -1.349710   -2.317476   -2.089374
H      -0.960509   -3.646442   -0.983301
H      -1.475927   -2.073608   -0.341650
H       1.019665   -2.361346   -3.160217
H       3.183329   -2.564016   -1.374278
