21

C       0.004360    1.302755   -0.599471
O      -0.066027   -0.050295   -0.214022
C      -1.315537   -0.574421    0.162366
C      -2.099302   -0.006182    1.309666
C      -2.625492    0.118551   -0.111336
C      -1.255866   -2.073915   -0.021716
C      -1.028610   -2.543714   -1.439996
C      -0.858529   -2.914075    1.116344
O      -2.233838   -2.806056    0.724509
H       1.059951    1.512496   -0.788330
H      -0.563579    1.502499   -1.518339
H      -0.346247    1.987256    0.186624
H      -2.594821   -0.702694    1.974971
H      -1.719587    0.895107    1.778674
H      -2.625123    1.103009   -0.563579
H      -3.466678   -0.504426   -0.395940
H      -0.094032   -2.129450   -1.826136
H      -0.983836   -3.634546   -1.482172
H      -1.844055   -2.206231   -2.088535
H      -0.401695   -3.885641    0.934952
H      -0.609594   -2.447116    2.067372
