16

N      -0.799960    0.145316   -1.363089
C      -0.252920    0.492135   -0.406287
C       0.448818    0.972244    0.783886
C       1.649183    1.824509    0.447766
N       2.776437    1.703987    1.047273
C       3.666594    2.659020    0.420549
C       3.966646    2.448513   -1.046663
C       2.863324    3.400034   -0.648437
N       1.541767    2.849305   -0.475330
H      -0.258487    1.553674    1.388437
H       0.788043    0.128160    1.388134
H       4.402738    3.128512    1.061135
H       4.875362    2.904222   -1.423353
H       3.706165    1.494266   -1.492954
H       2.925125    4.461305   -0.857294
H       0.902144    2.774908   -1.252992
