17

C       0.167606    1.490512   -0.204112
C      -0.081356   -0.032213   -0.001090
C       0.303573   -0.371512    1.436841
O       1.310803   -0.960367    1.733882
C      -1.582127   -0.243949   -0.205882
O      -2.402502   -0.056600    0.656955
C       0.770350   -0.826089   -0.979799
C       0.367633   -2.119157   -1.537877
O       0.284105   -0.921144   -2.320537
H       1.230887    1.714852   -0.077748
H      -0.131317    1.786750   -1.213851
H      -0.407893    2.076898    0.516811
H      -0.417532   -0.011542    2.196999
H      -1.870631   -0.535116   -1.235588
H       1.836761   -0.621035   -0.901281
H       1.129206   -2.829304   -1.852388
H      -0.588193   -2.561190   -1.258149
