18

C      -0.044413    1.557674    0.032728
C       0.078793    0.051626   -0.105404
C       0.767078   -0.622571   -1.311220
C       2.199401   -0.031871   -1.303993
C       2.344699   -0.690085    0.066277
N       1.046216   -0.641419    0.820559
C       1.272693   -1.683312   -0.240263
C       1.143791   -3.081495   -0.098417
C       1.025141   -4.276807   -0.018041
H       0.913005    2.069915   -0.089303
H      -0.743100    1.954441   -0.712074
H      -0.430870    1.808153    1.025734
H      -0.893253   -0.419069    0.074872
H       0.245671   -0.830377   -2.243315
H       2.838842   -0.536373   -2.032360
H       2.318163    1.050993   -1.398828
H       3.233315   -0.833495    0.666514
H       0.921763   -5.330195    0.064543
