18

C      -0.063132    1.456714   -0.085273
N      -0.030554    0.006692    0.014540
C      -1.102036   -0.647762    0.003263
C      -1.214781   -2.159219    0.085188
C      -2.681963   -2.403165    0.387781
O      -3.007526   -2.314969    1.794945
C      -3.828745   -1.143487    1.584283
C      -3.382556   -1.051558    0.116384
O      -2.362866   -0.091778   -0.120529
H       0.684184    1.874924    0.596483
H       0.225293    1.760153   -1.099319
H      -1.040595    1.898915    0.138855
H      -0.928991   -2.601599   -0.875441
H      -0.557639   -2.564758    0.855617
H      -3.101556   -3.303803   -0.069251
H      -4.894968   -1.361800    1.724205
H      -3.533711   -0.300507    2.217445
H      -4.146087   -0.957873   -0.656247
