12

N       0.177731    1.462790    0.017245
C       0.005031    0.072222    0.007336
C      -1.053624   -0.747913   -0.053126
O      -2.367230   -0.487539   -0.128220
O      -0.670236   -2.061668   -0.031131
C       0.737042   -2.109033    0.049296
O       1.357983   -3.134896    0.084876
N       1.124424   -0.806599    0.071307
H      -0.164333    1.908751   -0.826072
H      -0.259202    1.908787    0.815517
H      -2.836144   -1.329979   -0.154582
H       2.083695   -0.512696    0.126305
