20

O       0.125827    1.366680   -0.097701
C       0.032900   -0.045894   -0.083290
C      -1.417907   -0.555304   -0.066221
C      -2.197433   -0.066125   -1.302379
O      -3.598053   -0.110250   -1.143466
C      -1.415238   -2.076488    0.055777
O      -2.772539   -2.541467    0.049706
C      -2.967162   -3.859157    0.268098
N      -4.125099   -4.344947    0.162770
H      -0.281156    1.701008    0.708410
H       0.536866   -0.380581   -0.998057
H       0.590348   -0.473472    0.766075
H      -1.922744   -0.143556    0.819522
H      -1.935411    0.980149   -1.480930
H      -1.863785   -0.640901   -2.185478
H      -3.830639   -1.014492   -0.901160
H      -0.877279   -2.524470   -0.792054
H      -0.921025   -2.397446    0.982822
H      -2.047604   -4.395963    0.538184
H      -4.110787   -5.340177    0.374759
