18

C      -0.115987    1.529094   -0.323225
O       0.153757    0.177484    0.004435
C       0.653112   -0.592381   -1.052965
C       1.053184   -1.954752   -0.457531
C       2.185771   -1.830824    0.541179
O       3.181533   -2.508786    0.514797
C      -0.402812   -0.807812   -2.164785
N       0.122350   -1.130321   -3.381016
O      -1.593400   -0.712024   -1.956134
H       0.785134    2.034813   -0.703115
H      -0.918422    1.609285   -1.064705
H      -0.431650    2.018311    0.600403
H       1.539662   -0.105076   -1.499667
H       0.168189   -2.346560    0.060556
H       1.346651   -2.663026   -1.236003
H       2.033279   -1.050908    1.315585
H       1.111275   -1.213714   -3.539935
H      -0.508528   -1.357432   -4.132387
