21

C       0.004157    1.403763   -0.055257
C       0.086872   -0.106879    0.196277
C       0.845838   -0.436815    1.485602
N      -1.246126   -0.705241    0.225003
C      -1.725128   -1.524116   -0.748042
O      -1.077576   -1.866605   -1.728831
C      -3.133486   -2.008719   -0.543021
C      -4.013526   -2.010698   -1.749193
N      -3.492099   -3.265268   -1.213731
H       1.006438    1.839041   -0.117094
H      -0.520225    1.612911   -0.991479
H      -0.529791    1.910597    0.757553
H       0.585605   -0.582921   -0.651727
H       0.919747   -1.518054    1.629825
H       1.858009   -0.022578    1.452413
H       0.342150   -0.008403    2.360917
H      -1.857290   -0.461908    0.989367
H      -3.574908   -1.866126    0.440563
H      -5.081595   -1.857284   -1.624345
H      -3.580580   -1.621818   -2.666052
H      -2.677695   -3.530301   -1.770051
