22

C      -0.034315    1.662358    0.191583
C      -0.153906    0.160081    0.287471
N       0.936393   -0.639395   -0.299696
C       0.713857   -0.692633    1.158939
C       1.754817   -0.141140    2.071012
C       1.721248   -0.735844    3.262984
C       0.641452   -1.789662    3.336254
C       0.219688   -1.980205    1.853963
C      -1.248590   -2.351197    1.660955
H       1.003339    1.983647    0.305957
H      -0.386569    2.014259   -0.784289
H      -0.636277    2.152864    0.964439
H      -1.165241   -0.213586    0.135715
H       0.562715   -1.481693   -0.733888
H       2.426355    0.653532    1.771370
H       2.359867   -0.491058    4.104287
H       0.982655   -2.725290    3.793805
H      -0.204489   -1.439808    3.946674
H       0.837281   -2.793892    1.447348
H      -1.911486   -1.582569    2.072008
H      -1.501473   -2.483666    0.602575
H      -1.476276   -3.295304    2.166787
