18

O      -0.020433    1.364672   -0.005493
N       0.079174   -0.034346    0.014525
C      -1.059491   -0.612959    0.005440
C      -1.071719   -2.118224    0.025585
C      -1.914795   -2.669648   -1.138281
C      -3.339665   -2.085938   -1.123597
C      -3.327227   -0.563793   -1.104595
O      -4.006343    0.107489   -1.841834
C      -2.400956    0.077016   -0.063508
H       0.904443    1.631239   -0.027644
H      -0.044610   -2.487243   -0.014797
H      -1.509483   -2.461050    0.974902
H      -1.427899   -2.420590   -2.088684
H      -1.961656   -3.761494   -1.081359
H      -3.930889   -2.414861   -1.980986
H      -3.855633   -2.423565   -0.212521
H      -2.900421   -0.036880    0.911371
H      -2.306146    1.141135   -0.270014
