23

C       0.024944    1.555696    0.151510
C       0.003311    0.025381    0.138987
O       0.639045   -0.512227    1.298992
C      -1.395988   -0.539234   -0.046935
C      -2.412657   -0.398186    1.125333
C      -2.688312   -1.931289    1.076493
C      -1.690851   -2.086105   -0.099644
C      -2.315539   -1.915668   -1.508588
C      -2.040570   -0.381800   -1.454912
H       1.048023    1.919584    0.280490
H      -0.375770    1.967146   -0.780235
H      -0.584285    1.946998    0.975938
H       0.623916   -0.330905   -0.694423
H       0.246724   -0.089933    2.070310
H      -1.964337   -0.075912    2.070738
H      -3.267024    0.255228    0.925737
H      -2.373842   -2.451177    1.984522
H      -3.719195   -2.224528    0.855945
H      -0.906475   -2.834967    0.014521
H      -1.760004   -2.424487   -2.300286
H      -3.365752   -2.211502   -1.591456
H      -2.918430    0.269527   -1.498272
H      -1.333194   -0.042879   -2.218253
