17

C       0.055973    1.448700    0.054706
O      -0.144285    0.042815    0.098711
C       0.630138   -0.625135    1.059651
C       0.107123   -2.052922    1.267324
C       1.337401   -2.940429    1.296724
N       1.340763   -4.155379    1.655360
N       2.403116   -2.154414    0.847099
C       2.100036   -0.823197    0.621377
O       2.859153    0.002975    0.176208
H       1.081838    1.702504   -0.228028
H      -0.640473    1.837141   -0.691527
H      -0.171938    1.908219    1.028906
H       0.647173   -0.059026    2.005837
H      -0.492683   -2.186857    2.167392
H      -0.511428   -2.324135    0.406192
H       2.271121   -4.572379    1.589888
H       3.332646   -2.514522    0.681805
