16

N       0.007126    1.476413   -0.049776
C       0.022725    0.018832   -0.037447
C       0.172833   -0.544753    1.410257
C      -1.361707   -0.774350    1.469636
C      -1.401376   -0.684776   -0.077953
O      -2.444139   -0.023991   -0.725909
C       0.978144   -0.465463   -1.032787
N       1.702124   -0.895786   -1.824775
H      -0.423947    1.824736   -0.901488
H      -0.507299    1.842916    0.744152
H       0.739985   -1.476126    1.425007
H       0.617816    0.152479    2.122505
H      -1.722171   -1.698588    1.923347
H      -1.890031    0.063768    1.936295
H      -1.324691   -1.671517   -0.540482
H      -2.548298    0.844117   -0.320140
