16

C       0.020067    1.430774    0.049511
N      -0.140484   -0.007035   -0.064549
C       0.548749   -0.668510   -1.067805
C       1.194942   -0.115801   -2.160252
N       1.667860   -1.175478   -2.883676
N       1.398207   -2.357821   -2.358736
C       0.704186   -2.081928   -1.239949
C       0.193794   -3.137136   -0.366593
O       0.351971   -4.326892   -0.515296
H       1.069558    1.746902    0.164305
H      -0.385390    1.921100   -0.842632
H      -0.548146    1.787671    0.911031
H      -0.136664   -0.488086    0.821519
H       1.349851    0.902394   -2.473191
H       2.186936   -1.134849   -3.745735
H      -0.394942   -2.749640    0.498598
