23

C       0.582522    1.663143   -0.166490
C       0.123560    0.245902    0.163451
C       0.775286   -0.859585   -0.734207
O       1.297480   -0.517747   -1.995511
C       1.736143   -1.215530    0.425843
C       0.798423   -0.444455    1.406061
C       1.475101    0.435170    2.453995
C      -0.199312   -1.388911    2.078142
O       0.508303   -2.233874    2.975066
H       1.674421    1.758540   -0.187070
H       0.207305    1.961085   -1.150388
H       0.212932    2.383142    0.569818
H      -0.972646    0.226037    0.181106
H       0.068352   -1.668993   -0.933736
H       1.994791    0.132842   -1.865315
H       1.924785   -2.269740    0.638949
H       2.700421   -0.707482    0.311050
H       2.220526    1.099536    2.008631
H       0.743164    1.058653    2.981796
H       1.976414   -0.189614    3.197998
H      -0.957959   -0.790215    2.610075
H      -0.728535   -1.984725    1.317959
H      -0.121856   -2.827847    3.392471
