21

C       0.007644    1.484107    0.138561
N       0.014901    0.031719    0.100426
C      -1.059172   -0.598963   -0.106120
O      -2.264149    0.041315   -0.229807
C      -3.291961   -0.563871   -1.025139
C      -3.394194   -2.057167   -0.775180
N      -2.078038   -2.622776   -1.032168
C      -1.091641   -2.122806   -0.067472
C       0.274257   -2.743670   -0.334933
H       0.953853    1.851989   -0.269989
H      -0.825554    1.939656   -0.407952
H      -0.046650    1.825893    1.180238
H      -4.215334   -0.043313   -0.758367
H      -3.072540   -0.383654   -2.084941
H      -3.752649   -2.234159    0.256645
H      -4.126215   -2.488982   -1.465688
H      -2.105852   -3.635379   -0.980625
H      -1.398433   -2.375757    0.969382
H       0.605274   -2.509193   -1.349554
H       1.012344   -2.356354    0.367053
H       0.218020   -3.832928   -0.228419
