18

O      -0.068665   -0.012412   -0.053290
C      -0.029193    1.187944   -0.020611
N      -1.016848    2.154150   -0.054186
C      -0.116581    3.300878    0.097510
C       0.100039    3.927698    1.491852
C       1.648145    4.149186    1.441248
C       1.668219    2.583715    1.475296
C       0.420361    2.704626    2.394781
C       1.070592    2.277108    0.086085
H      -2.016214    2.066503    0.063727
H      -0.188609    4.033059   -0.709949
H      -0.585277    4.715789    1.805422
H       2.068488    4.648662    0.562424
H       2.041381    4.601766    2.354300
H       2.550185    2.019828    1.775335
H       0.691369    3.011164    3.406744
H      -0.289183    1.875913    2.435534
H       1.787186    2.312597   -0.734606
