20

C       0.080065    1.447973   -0.046986
C       1.327226    0.661972    0.006549
N      -0.030198   -0.012139    0.117396
C       0.204867   -0.582112   -1.258388
C       1.649408   -0.015345   -1.333190
C       2.094886    0.901044   -2.499202
C       3.585695    0.673103   -2.577235
C       3.959907   -0.393388   -1.872574
C       2.782471   -1.066792   -1.210625
H      -0.204946    1.997910    0.845029
H      -0.248421    1.902033   -0.980438
H       2.007153    0.710503    0.852967
H       0.162072   -1.673517   -1.226116
H      -0.509025   -0.219553   -2.007249
H       1.606214    0.610753   -3.441761
H       1.824252    1.948614   -2.324650
H       4.244049    1.297216   -3.171404
H       4.970883   -0.779026   -1.802051
H       2.967579   -1.354080   -0.168727
H       2.520380   -1.994724   -1.740655
