24

C      -0.554362    1.832642   -0.321565
C      -0.349387    0.318336   -0.231776
C      -1.663943   -0.457832   -0.072008
C      -1.477808   -1.955224    0.023018
C      -0.856271   -2.941145   -1.000214
N      -1.247649   -3.890467    0.143791
C      -0.667156   -2.790089    1.048879
C      -2.559089   -3.066850    0.174550
C      -3.473956   -3.204937    1.376926
H       0.398514    2.359040   -0.434894
H      -1.184890    2.096704   -1.177930
H      -1.043876    2.219709    0.579074
H       0.172058   -0.035672   -1.130267
H       0.311474    0.086805    0.613439
H      -2.189720   -0.104762    0.826333
H      -2.326752   -0.234484   -0.919997
H      -1.400072   -3.130102   -1.931167
H       0.222790   -2.896725   -1.171686
H       0.424261   -2.733203    1.003354
H      -1.001057   -2.834275    2.086409
H      -3.140520   -3.252903   -0.737290
H      -3.000900   -2.956540    2.329464
H      -4.342296   -2.548139    1.255933
H      -3.843305   -4.233758    1.443855
