17

C      -0.207710    1.602440   -0.069466
C       0.104175    0.108174    0.028744
C       1.351836   -0.665356   -0.327576
C       2.709676   -0.118642    0.194744
C       2.638597    1.154046    0.996028
C       2.174643   -0.136938    1.616450
C       0.813975   -0.683724    1.101625
H       0.463960    2.124638   -0.756490
H      -1.224524    1.739358   -0.450533
H      -0.160250    2.103318    0.901464
H      -0.749082   -0.485489   -0.299978
H       1.323141   -1.467062   -1.055874
H       3.651936   -0.509423   -0.167302
H       3.607820    1.480379    1.364968
H       1.975682    1.971518    0.757090
H       2.647792   -0.543782    2.500899
H       0.319069   -1.501344    1.612057
