18

C      -0.027433    1.506212   -0.158972
C       1.308767    0.819719    0.029341
C       0.016561    0.003430   -0.018648
C       0.328278   -0.758619   -1.287446
C      -0.074171   -1.693927   -2.439320
C       1.339337   -1.155310   -2.785107
C       1.840322   -1.190813   -1.326151
C       2.050406    0.332637   -1.234761
N       0.947137    0.253435   -2.289716
H      -0.407271    2.062964    0.691788
H      -0.267732    1.925980   -1.127772
H       1.860620    0.959614    0.951641
H      -0.384710   -0.499348    0.852167
H      -0.157953   -2.758656   -2.208645
H      -0.888652   -1.348643   -3.081194
H       1.899542   -1.285830   -3.711310
H       2.314834   -2.013511   -0.779972
H       2.978802    0.838680   -1.508429
