17

O      -0.028307    1.486646    0.153753
C      -0.020134    0.081768    0.098389
C       0.217631   -0.738094    1.400916
C      -0.830219   -0.166913    2.393298
C      -1.878159   -0.788382    1.472112
C      -0.880665   -1.745475    0.884857
C      -1.386953   -0.586871    0.018211
C      -2.266970   -0.637279   -1.095903
C      -2.999300   -0.673709   -2.050689
H       0.872352    1.804486    0.036765
H       0.616983   -0.289556   -0.714809
H       1.225555   -0.992955    1.720568
H      -0.797141   -0.688540    3.353481
H      -0.834403    0.916164    2.541198
H      -2.932654   -0.951641    1.650255
H      -0.898006   -2.805222    0.681711
H      -3.648573   -0.702777   -2.889851
