17

C       0.183622    1.656677    0.285064
C       0.091912    0.132723    0.066870
C       0.773653   -0.611252    1.233150
C      -1.375601   -0.324779   -0.114224
C      -2.201477   -0.049619    1.057784
N      -2.837730    0.176695    1.995924
C       0.858843   -0.200308   -1.206964
O       0.392112   -0.729113   -2.181795
H       1.227550    1.979539    0.349910
H      -0.292476    2.207315   -0.532542
H      -0.313533    1.934404    1.218850
H       0.283503   -0.360402    2.178178
H       0.723146   -1.696573    1.099445
H       1.827704   -0.327304    1.314247
H      -1.813886    0.171860   -0.986019
H      -1.405500   -1.397811   -0.329824
H       1.932779    0.095031   -1.169651
