25

C       0.004728    1.527899   -0.018494
C       0.001438   -0.011005    0.062368
C       0.702211   -0.449548    1.362156
C      -1.457538   -0.503534    0.073380
C       0.745190   -0.557414   -1.194773
O       2.071461   -0.028953   -1.289867
C       0.768865   -2.083765   -1.338738
C       1.384844   -2.536648   -2.657985
O       1.360401   -3.957681   -2.677835
H       1.023973    1.912144   -0.097254
H      -0.552621    1.875277   -0.895945
H      -0.466282    1.963190    0.869274
H       0.184507   -0.031292    2.231661
H       0.710666   -1.537796    1.479759
H       1.736775   -0.090449    1.405779
H      -1.954453   -0.295790   -0.881344
H      -1.533429   -1.577530    0.266360
H      -2.024244    0.010598    0.856917
H       0.232595   -0.137190   -2.071099
H       2.602359   -0.452566   -0.606711
H       1.340280   -2.536011   -0.517530
H      -0.244058   -2.492504   -1.276456
H       0.806574   -2.116572   -3.497722
H       2.408808   -2.147894   -2.742304
H       1.790250   -4.252108   -3.485898
