17

C       0.211467    1.559527   -0.102555
C       0.134803    0.063774    0.050139
O       1.381725   -0.662868    0.086264
C       0.539658   -0.682029    1.253668
C       1.070519   -0.054459    2.520358
C      -0.084212   -2.061579    1.387904
O      -1.223260   -2.325726    1.083151
C       0.804015   -3.218557    1.876307
O       1.913747   -3.090696    2.318668
H       0.986078    2.000302    0.527120
H       0.436223    1.815315   -1.142934
H      -0.752145    2.013174    0.152393
H      -0.623874   -0.414667   -0.569578
H       1.511461    0.922053    2.314589
H       0.260947    0.077325    3.246885
H       1.835410   -0.695000    2.963453
H       0.286792   -4.197866    1.790636
