16

O       0.102255    0.023730    0.279913
C       0.047683    1.184639   -0.007829
O      -1.116278    1.904989   -0.069465
C      -0.822013    3.312470   -0.088441
C       0.634628    3.406185   -0.577143
C       1.656383    4.292269    0.184083
C       2.743585    3.294568    0.549942
C       2.358516    2.050378    0.264497
N       1.093825    2.027061   -0.356847
H      -1.537243    3.801437   -0.751721
H      -0.940892    3.713534    0.926163
H       0.664587    3.627898   -1.649603
H       2.018867    5.107762   -0.448140
H       1.222854    4.757280    1.081663
H       3.679697    3.567172    1.015587
H       2.860601    1.110881    0.444397
