20

C       0.031543    1.505027   -0.067672
C       0.034239    0.048916   -0.053713
C       0.042875   -1.155073   -0.040844
C       0.018434   -2.613788   -0.024394
C      -1.408357   -3.191409    0.046368
C      -1.415617   -4.721005    0.047025
C      -2.812427   -5.293012    0.289549
N      -3.024111   -6.533748   -0.242743
O      -3.670285   -4.701291    0.914815
H       0.617323    1.913779    0.763339
H       0.459127    1.897413   -0.997210
H      -0.986050    1.901815    0.020366
H       0.527030   -2.999442   -0.919186
H       0.601020   -2.982838    0.831366
H      -1.913835   -2.835422    0.947237
H      -1.992683   -2.817591   -0.801033
H      -0.999366   -5.117251   -0.887594
H      -0.769783   -5.096407    0.853767
H      -2.294835   -7.055231   -0.695830
H      -3.891839   -6.998900   -0.031479
