20

C      -0.056583    1.519387   -0.016490
C       0.034117    0.010442    0.002195
C       1.360645   -0.710346   -0.172601
O       2.562287    0.017518   -0.174195
C       0.673354   -0.728021    1.171949
O       1.279856    0.042763    2.169182
C       0.052723   -1.982576    1.705060
C       0.692964   -2.721959    2.819462
N      -0.563492   -1.979143    3.039933
H       0.754041    1.974862    0.555660
H      -0.024702    1.911908   -1.039695
H      -0.997574    1.850447    0.433288
H      -0.807160   -0.503237   -0.457646
H       1.391295   -1.620881   -0.768755
H       2.535572    0.665810   -0.885530
H       2.148721    0.294770    1.824948
H      -0.511049   -2.542978    0.961347
H       0.604908   -3.803269    2.876351
H       1.608363   -2.306172    3.228809
H      -0.333676   -1.095580    3.491244
