20

C      -0.248851    1.438979    0.108101
C       0.045024   -0.063748    0.049982
C      -1.271304   -0.796393   -0.207017
C       1.334452   -0.573110   -0.723681
C       2.223496    0.049099    0.396257
C       1.048021   -0.691009    1.104182
N       1.326308   -1.801065    0.135423
C       0.828105   -3.048529   -0.047686
O       0.703576   -3.608450   -1.119133
H       0.606184    2.067131    0.356295
H      -0.640557    1.778147   -0.857064
H      -1.026785    1.633129    0.854732
H      -1.156917   -1.863330   -0.392215
H      -1.949319   -0.664957    0.644034
H      -1.769258   -0.367327   -1.083151
H       1.516152   -0.629012   -1.795753
H       3.196526   -0.424841    0.519307
H       2.279102    1.130936    0.473607
H       0.899481   -0.879390    2.168615
H       0.625439   -3.544512    0.924878
