22

C      -1.970571    1.886435   -0.302745
C      -1.299387    0.547873   -0.609277
C      -1.733618   -0.562122    0.348903
O      -2.293429   -0.296544    1.391687
C      -1.424018   -1.999412    0.004572
C      -1.458396   -2.972820    1.169348
C      -0.286628   -2.780311    2.137824
C      -1.848558   -2.461883   -1.360064
N      -0.431884   -2.315017   -1.046922
H      -1.584058    2.670899   -0.959019
H      -3.053131    1.821729   -0.443678
H      -1.794370    2.174868    0.735242
H      -1.476074    0.253161   -1.650605
H      -0.207633    0.642339   -0.510701
H      -2.407812   -2.846099    1.697793
H      -1.436748   -3.989054    0.762591
H      -0.317193   -3.526874    2.936993
H       0.667754   -2.885647    1.612397
H      -0.320481   -1.791544    2.603921
H      -2.199265   -3.485183   -1.462940
H      -2.323358   -1.752432   -2.032536
H      -0.060445   -1.469036   -1.470029
