17

C      -0.061215    1.442113    0.055158
N       0.012329   -0.006019   -0.027600
C      -1.261876   -0.708307   -0.099629
C      -1.061051   -2.161752   -0.507018
C       0.111460   -2.708815    0.284945
O       1.294305   -1.960129   -0.000317
C       1.253827   -0.598242   -0.018514
O       2.294382    0.015141   -0.040691
H       0.950611    1.835756    0.125878
H      -0.550811    1.857431   -0.835070
H      -0.638259    1.749919    0.937060
H      -1.773360   -0.654656    0.874697
H      -1.906342   -0.188712   -0.820495
H      -1.969253   -2.739655   -0.312408
H      -0.835691   -2.233398   -1.576292
H      -0.094669   -2.672102    1.364070
H       0.349635   -3.741363    0.019449
