23

C       0.004670    1.560005    0.044828
C       0.042942    0.022411   -0.023968
C       0.702722   -0.480730   -1.224777
C       1.262698   -0.864932   -2.219074
C       1.904236   -1.366590   -3.442507
C       1.920358   -2.909100   -3.410504
C       1.126190   -0.852933   -4.672018
O       3.236707   -0.826433   -3.406932
C       4.105889   -1.171131   -4.462680
H       1.016772    1.973171    0.036692
H      -0.534444    1.973764   -0.811693
H      -0.496154    1.889024    0.960365
H       0.553615   -0.371508    0.864204
H      -0.980609   -0.372081    0.019255
H       0.902916   -3.289608   -3.290724
H       2.327794   -3.321276   -4.338323
H       2.523662   -3.259382   -2.569509
H       1.171062    0.237993   -4.712858
H       1.535551   -1.261710   -5.600461
H       0.078383   -1.156009   -4.603712
H       4.312841   -2.249250   -4.512174
H       3.739214   -0.842902   -5.445412
H       5.046706   -0.652723   -4.259905
