22

C      -0.181806    1.523093    0.064118
C       0.049125    0.033342   -0.019053
C      -0.754401   -0.910574    0.860030
C       0.725402   -0.776990    1.071698
N       1.540767   -1.840423    0.514684
C       2.688335   -1.300196   -0.240606
C       1.454732   -1.714439   -0.962151
C       1.419417   -2.987283   -1.770192
C       0.496180   -0.578114   -1.348641
H       0.697301    2.082791   -0.277267
H      -1.031785    1.833543   -0.555806
H      -0.396469    1.834391    1.091629
H      -1.410017   -0.464775    1.601045
H      -1.122613   -1.839291    0.433966
H       1.107885   -0.324905    1.981738
H       2.896591   -0.235681   -0.151121
H       3.567380   -1.938522   -0.253927
H       2.082378   -3.741363   -1.338543
H       0.405712   -3.402990   -1.801414
H       1.736050   -2.800600   -2.802838
H      -0.350142   -0.970588   -1.926443
H       0.992007    0.169581   -1.979062
