22

C      -0.066109    1.538451    0.073925
C       0.036708    0.011629    0.024800
C       0.717701   -0.578248    1.263780
C       0.815995   -2.096147    1.216450
O       1.459066   -2.542892    2.393547
C       1.614822   -3.927376    2.444830
C       2.445341   -4.295877    3.680530
N       2.316489   -5.609917    4.047518
O       3.190480   -3.523655    4.237901
H       0.925341    1.999119    0.143746
H      -0.555807    1.934531   -0.821100
H      -0.644167    1.867688    0.944337
H      -0.968088   -0.419059   -0.080505
H       0.590731   -0.288370   -0.874654
H       1.728618   -0.167439    1.371779
H       0.167806   -0.292334    2.168652
H      -0.189824   -2.545288    1.133824
H       1.384703   -2.419956    0.326938
H       0.638613   -4.445303    2.472326
H       2.148457   -4.309422    1.555429
H       1.553456   -6.177376    3.720563
H       2.796938   -5.904080    4.882653
