19

C       0.002918    1.360946    0.030910
O      -0.063181   -0.050964   -0.086311
C      -1.334049   -0.555477   -0.064779
C      -2.492638   -0.363945   -1.083196
C      -2.282298   -0.813991   -2.521704
C      -3.057551   -1.371376   -0.054761
C      -1.672712   -2.056731    0.184310
O      -1.734344   -1.940126    1.634636
C      -2.332757   -0.703368    1.150905
H       1.059547    1.632870   -0.002337
H      -0.522048    1.861975   -0.793850
H      -0.426306    1.704106    0.982140
H      -2.972801    0.620921   -1.041911
H      -1.809405   -1.800645   -2.570371
H      -3.233344   -0.873133   -3.061714
H      -1.638012   -0.112949   -3.062826
H      -4.028410   -1.859809   -0.023620
H      -1.241463   -2.957359   -0.249293
H      -2.703534    0.024018    1.872241
