19

O      -0.020893    1.440228   -0.062016
C       0.031821    0.024890    0.046961
C      -1.381893   -0.515787   -0.128065
C      -1.460799   -2.031887   -0.020624
C      -1.236841   -2.718738    1.360233
C      -2.372647   -3.715597    1.006337
C      -2.856652   -2.715239   -0.077578
H       0.867415    1.784645    0.067429
H       0.692479   -0.409103   -0.722147
H       0.430261   -0.283334    1.027344
H      -2.027501   -0.053744    0.629863
H      -1.760968   -0.186839   -1.104120
H      -0.800060   -2.491817   -0.766696
H      -0.246717   -3.126582    1.579539
H      -1.527230   -2.053549    2.180895
H      -1.980222   -4.635049    0.561979
H      -3.075184   -3.987793    1.797446
H      -3.635636   -2.049490    0.308989
H      -3.190289   -3.116858   -1.037836
