18

C       0.346548    1.483438   -0.295280
C      -0.002082    0.012338   -0.048234
O      -1.381710   -0.120966    0.288964
C       0.404704   -0.865613   -1.217997
C       1.449907   -1.641001   -0.948243
C       1.955245   -1.452945    0.460746
C       0.795109   -0.657928    1.124852
C       1.225888    0.256418    2.174487
N       1.579537    0.984151    3.000349
H       1.418208    1.616376   -0.467625
H      -0.178148    1.847191   -1.186689
H       0.053755    2.096367    0.561548
H      -1.887020    0.497644   -0.248363
H      -0.115374   -0.802391   -2.167740
H       1.927564   -2.320308   -1.645282
H       2.152910   -2.394165    0.983111
H       2.891859   -0.882064    0.478773
H       0.091552   -1.370070    1.567060
