21

O      -0.087331    1.411627   -0.004993
C      -0.037534   -0.008693    0.005114
C      -1.446218   -0.525454    0.018148
C      -2.545791   -0.269169    1.099169
C      -3.217434   -1.188777    0.034756
C      -2.559512   -0.286396   -1.052721
C      -1.908041   -1.999207    0.032900
C      -1.471082   -3.202534   -0.726133
C      -1.461292   -3.190230    0.805513
H       0.815588    1.742234   -0.014425
H       0.486924   -0.397095   -0.883965
H       0.498554   -0.384038    0.892877
H      -2.370616   -0.706654    2.085307
H      -2.920735    0.754778    1.165342
H      -4.235688   -1.579376    0.044368
H      -2.935400    0.736391   -1.130496
H      -2.396885   -0.739634   -2.033882
H      -2.221787   -3.812138   -1.220063
H      -0.510933   -3.190038   -1.233582
H      -0.494725   -3.169643    1.300362
H      -2.205525   -3.791762    1.318755
