18

C       0.203440    1.025016    0.159969
O      -0.086582   -0.354438    0.366148
C      -1.382300   -0.732810    0.018563
C      -1.708209   -1.020900   -1.439388
C      -1.526954   -2.158450   -0.468049
C      -0.268900   -3.009011   -0.504301
O       0.182959   -3.348130    0.790672
C      -2.421693   -0.168871    0.855543
N      -3.238674    0.301928    1.525590
H       1.246263    1.168228    0.447134
H       0.071411    1.303311   -0.893352
H      -0.436455    1.661837    0.782822
H      -2.700822   -0.781065   -1.801398
H      -0.901328   -0.832296   -2.139866
H      -2.421288   -2.671793   -0.130478
H      -0.486185   -3.952242   -1.015943
H       0.509669   -2.491530   -1.081303
H       0.448891   -2.521726    1.210797
