17

C      -0.106536    1.416041    0.060263
O      -0.126612   -0.012921    0.116996
C       0.598353   -0.599022    1.077847
N       1.296562    0.143731    1.927849
C       1.988240   -0.535317    2.851504
N       2.054211   -1.847172    3.011511
C       1.337656   -2.589623    2.138025
C       1.407316   -4.080596    2.312925
C       0.583452   -1.999258    1.139560
H       0.908024    1.787467   -0.105660
H      -0.750874    1.680240   -0.778929
H      -0.489577    1.850495    0.987273
H       2.562112    0.069887    3.550468
H       0.802760   -4.606695    1.570830
H       2.445078   -4.419113    2.231470
H       1.061862   -4.356767    3.314200
H       0.002498   -2.574388    0.429865
