20

C      -0.911478   -1.556868    0.153102
C       0.354471   -0.713455   -0.015144
C       0.918119   -0.667609   -1.429528
C       0.731916   -1.753545   -2.397173
O      -0.046059   -0.550409   -2.491607
C       2.093016    0.254985   -1.601577
C       1.860519    1.738667   -1.517237
N       3.222983   -0.304887   -1.805549
O       4.259448    0.632844   -1.922818
H      -1.666274   -1.267940   -0.582678
H      -0.706958   -2.625002    0.032502
H      -1.331981   -1.414859    1.152532
H       0.144970    0.318880    0.294145
H       1.149562   -1.073125    0.649604
H       1.475185   -1.892603   -3.177869
H       0.170717   -2.642631   -2.119331
H       2.122264    2.121335   -0.523827
H       2.494493    2.259592   -2.237624
H       0.812624    1.972067   -1.716019
H       5.018880    0.071664   -2.111925
