20

C      -0.111100    1.580805    0.041835
C      -0.028908    0.053050   -0.016870
C       0.718614   -0.485234   -1.251358
N       2.105155   -0.030816   -1.246873
C       2.934537   -0.629890   -2.287123
C       2.964864   -2.148813   -2.144885
O       3.917986   -2.809969   -2.501785
C       1.719154   -2.750046   -1.632228
C       0.676599   -1.988004   -1.282676
H       0.877032    2.037062    0.160582
H      -0.570123    1.991389   -0.864984
H      -0.716220    1.902787    0.894372
H       0.470297   -0.329909    0.880230
H      -1.043296   -0.364132   -0.025820
H       0.164925   -0.131732   -2.150662
H       2.137810    0.978813   -1.321259
H       2.586129   -0.413645   -3.318068
H       3.958382   -0.256819   -2.206668
H       1.676958   -3.834592   -1.617107
H      -0.266656   -2.445163   -0.991633
