13

O       0.006354    1.407001    0.019713
C       0.007109    0.002595    0.017692
C       0.708343   -0.570496   -1.261772
C       0.103922   -0.004955   -2.457562
C      -0.420730    0.520478   -3.402791
C       0.762567   -0.439074    1.207736
N       1.380032   -0.818303    2.105497
C      -1.378396   -0.531812    0.104810
N      -2.462110   -0.928347    0.138799
H      -0.328201    1.689248   -0.845038
H       1.766583   -0.297484   -1.196909
H       0.641616   -1.662881   -1.254980
H      -0.879025    0.951452   -4.259697
