19

C       0.053604    1.512314    0.149470
C      -0.094089    0.004511   -0.064779
C       0.742682   -0.508630   -1.235494
N       0.554240   -1.938002   -1.423522
C       1.265749   -2.580050   -2.417985
C       1.832309   -2.090631   -3.578451
N       2.341370   -3.209090   -4.169401
N       2.122951   -4.303993   -3.439900
N       1.470414   -3.929715   -2.371287
H       1.095147    1.786550    0.349341
H      -0.273786    2.072821   -0.733038
H      -0.547650    1.849824    0.998460
H       0.206174   -0.526967    0.848628
H      -1.144166   -0.253980   -0.242924
H       0.428400    0.002782   -2.155511
H       1.804947   -0.247899   -1.079732
H       0.547807   -2.475931   -0.567055
H       1.912633   -1.110806   -4.013292
H       2.839470   -3.288503   -5.040904
