19

C      -0.328516    1.167849    0.183091
O       0.492805    0.050400   -0.089364
C       1.004993   -0.533930    1.065329
C       0.166448   -1.619856    1.714128
C       1.413080   -1.965720    0.902260
C       2.251573   -2.571123    2.047513
C       1.244834   -3.530527    2.738743
C       0.653527   -2.136392    3.083634
O       2.027480   -1.637409    3.150266
H       0.222660    1.952119    0.723471
H      -0.659916    1.566224   -0.778641
H      -1.208536    0.890199    0.781321
H       1.593079    0.128666    1.696597
H      -0.836862   -1.817205    1.358185
H       1.372902   -2.428659   -0.075351
H       3.300209   -2.812306    1.875947
H       0.658420   -4.217323    2.122798
H       1.677048   -4.024575    3.610590
H       0.064128   -1.932578    3.977273
