19

O       0.056355    1.400324   -0.165534
C       0.012448    0.022187    0.172661
C      -1.336942   -0.521836   -0.282700
C      -1.491820   -2.000603    0.015093
O      -1.473309   -2.296443    1.440493
C      -2.724401   -3.016197    1.382748
C      -2.877637   -2.640171   -0.086055
C      -4.048713   -2.302153   -0.889964
O      -3.297947   -3.510719   -1.108949
H       0.875013    1.767377    0.180241
H       0.823736   -0.537027   -0.322562
H       0.117739   -0.133403    1.255864
H      -2.134957    0.041779    0.212976
H      -1.440200   -0.360444   -1.363146
H      -0.727014   -2.591176   -0.510989
H      -2.598580   -4.092638    1.555809
H      -3.466654   -2.615797    2.083102
H      -5.046707   -2.442477   -0.476734
H      -3.971576   -1.556898   -1.680018
