16

C      -0.007881    1.417864   -0.041432
N      -0.011152   -0.040061   -0.018375
N      -0.061406   -0.657409   -1.196694
C      -0.067465   -1.957761   -1.212923
C      -0.018401   -2.763779   -0.026131
N      -0.081834   -4.133571   -0.156276
C       0.038903   -2.112155    1.176529
C       0.041114   -0.676186    1.247795
O       0.087910    0.009900    2.259161
H       0.897416    1.798997    0.437660
H      -0.052457    1.728278   -1.083803
H      -0.866127    1.803606    0.514334
H      -0.117313   -2.416918   -2.195371
H       0.215505   -4.523588   -1.036777
H       0.198375   -4.680155    0.643067
H       0.081860   -2.641749    2.121231
