15

O       0.288067    1.428165    0.122008
C       0.053053    0.060113    0.107753
C       0.206554   -0.811253    1.390828
N      -1.137136   -1.462489    1.160309
C      -2.196995   -0.398650    1.245638
C      -2.191143    0.700203    2.246675
O      -1.354192    1.569295    2.377605
C      -1.371077   -0.513871    0.010997
H      -0.174073    1.778638    0.899721
H       0.653806   -0.354155   -0.706882
H       0.982653   -1.576317    1.333759
H       0.298597   -0.270186    2.334346
H      -3.172925   -0.873589    1.174684
H      -3.060460    0.672796    2.935618
H      -1.856410   -0.842552   -0.904238
