16

C      -0.322804    1.421252    0.107884
C      -0.053133   -0.033580   -0.063091
N       0.404398   -0.524838   -1.185153
O       0.513334   -1.908545   -0.912450
C       0.101396   -2.065318    0.351113
N      -0.266931   -0.959688    0.934856
N       0.187885   -3.320830    0.891404
C      -0.894484   -3.837298    1.715982
C      -0.617091   -4.426038    0.371763
H       0.281911    1.824284    0.925813
H      -0.089783    1.960139   -0.811574
H      -1.373431    1.584404    0.366213
H      -0.576349   -4.357950    2.613178
H      -1.772516   -3.208171    1.826136
H      -1.311064   -4.202529   -0.433324
H      -0.092277   -5.371522    0.284500
