20

C       0.066038    1.657433    0.065340
C       0.122624    0.127433    0.082008
C       0.681489   -0.501661   -1.216723
C       0.762892   -2.033816   -1.131485
N      -0.556598   -2.629170   -1.303355
C      -1.402842   -2.244661   -2.317239
O      -2.363840   -2.912428   -2.659439
C      -1.079861   -0.926693   -2.924647
C      -0.138747   -0.120562   -2.426518
H       1.052637    2.091140   -0.134796
H      -0.623599    2.028519   -0.699044
H      -0.275275    2.043309    1.030442
H       0.756547   -0.202865    0.914822
H      -0.876553   -0.282157    0.266477
H       1.704001   -0.126608   -1.355053
H       1.463604   -2.401377   -1.897378
H       1.155497   -2.338000   -0.156065
H      -0.704508   -3.574983   -0.982695
H      -1.696783   -0.654668   -3.773408
H       0.031431    0.857090   -2.869764
