17

C      -0.031989    1.539709   -0.020173
C       0.047655    0.022435    0.024913
O       0.829171   -0.481950   -1.080257
C       1.864456   -1.227760   -0.629730
O       2.673855   -1.767605   -1.328189
N       1.818183   -1.251562    0.765049
C       2.795381   -1.956904    1.564979
C       0.754031   -0.517521    1.257120
N       0.381636   -0.287827    2.447267
H       0.969058    1.978449    0.015967
H      -0.528072    1.868375   -0.936485
H      -0.599165    1.890940    0.845053
H      -0.951765   -0.418623   -0.051548
H       3.500566   -2.427058    0.879117
H       3.332510   -1.264779    2.222203
H       2.313690   -2.726697    2.177024
H       0.987204   -0.735599    3.135545
