16

C      -0.011166    1.512590    0.123696
C       0.014074    0.028126    0.007726
C      -0.001546   -0.734379   -1.124428
O       0.033199   -2.064451   -0.728008
C       0.068344   -2.006228    0.623977
N       0.059590   -0.814344    1.117800
N      -0.039423   -0.386801   -2.440023
C      -0.040490   -1.279107   -3.360158
N      -0.146698   -0.946995   -4.677761
H       0.879878    1.884184    0.642089
H      -0.051716    1.965681   -0.869270
H      -0.881419    1.849184    0.698127
H       0.099131   -2.948830    1.148539
H       0.000155   -2.354276   -3.167099
H      -0.029557    0.026677   -4.914230
H       0.140849   -1.616777   -5.370433
