23

C       0.309814    1.591841    0.125518
C       0.016687    0.099186    0.014968
C       0.456569   -0.463644   -1.350453
C       0.439807   -1.992302   -1.484486
C      -0.744676   -2.682171   -0.747501
C       0.196740   -2.889300    0.473178
C       1.399009   -2.725379   -0.498476
C       0.145379   -1.771660    1.522383
O       0.686455   -0.531821    1.103356
H       1.389208    1.767114    0.076250
H      -0.167523    2.144545   -0.689465
H      -0.057072    1.985001    1.077217
H      -1.068550   -0.054981    0.133616
H      -0.202589   -0.027224   -2.112799
H       1.470161   -0.101165   -1.569024
H       0.563040   -2.256168   -2.538926
H      -1.667198   -2.112633   -0.597161
H      -1.003611   -3.637103   -1.213350
H       0.099096   -3.849639    0.989540
H       1.731233   -3.686426   -0.900022
H       2.262265   -2.166173   -0.131138
H      -0.894058   -1.636099    1.869155
H       0.749286   -2.059275    2.389897
