22

C       0.130778    1.529999   -0.047098
C      -0.023104    0.014071   -0.006960
C      -1.425081   -0.478296   -0.420056
C      -1.768500   -1.688694    0.490448
C      -0.840384   -1.587294    1.734621
C       0.326411   -0.668277    1.346807
N       1.612964   -1.260767    0.795498
C       1.268645   -2.154892   -0.324562
C       1.220937   -0.701782   -0.566906
H       1.123807    1.836611    0.297754
H      -0.001075    1.913712   -1.065896
H      -0.615439    2.016839    0.590472
H      -2.148117    0.329052   -0.255176
H      -1.478960   -0.735639   -1.482806
H      -2.824153   -1.685636    0.777774
H      -1.606802   -2.630394   -0.041848
H      -1.382168   -1.131565    2.570291
H      -0.496217   -2.566557    2.082243
H       0.603951    0.014368    2.152664
H       2.141285   -2.680431   -0.703166
H       0.373882   -2.764498   -0.292701
H       1.956085   -0.207205   -1.197119
