23

C       0.107147    1.529887    0.141599
C       0.008132    0.003393    0.147959
O       0.477601   -0.537501    1.379909
C      -1.409301   -0.484510   -0.194326
C      -1.518078   -1.991022   -0.288361
C      -1.865828   -2.854134    0.910904
C      -2.820096   -2.741364   -0.255148
C      -4.156160   -2.049611   -0.102738
O      -2.849752   -3.820760   -1.160279
H       1.120011    1.843747    0.407671
H      -0.138782    1.941980   -0.842537
H      -0.588209    1.967926    0.869164
H       0.703085   -0.398983   -0.600352
H      -0.101322   -0.214668    2.079402
H      -2.102994   -0.093589    0.563456
H      -1.710185   -0.026547   -1.146568
H      -0.797498   -2.444176   -0.964749
H      -1.326827   -3.786559    1.034768
H      -2.127240   -2.353569    1.838468
H      -4.103100   -1.200111    0.582935
H      -4.517107   -1.691295   -1.072454
H      -4.903886   -2.746189    0.297021
H      -3.386947   -4.517554   -0.766223
