19

C       0.031199    1.531459    0.112678
C      -0.016501    0.031803   -0.028707
C       0.747195   -0.603844   -1.213179
C      -0.058777   -1.912587   -1.382567
C       0.016950   -2.732184   -0.072602
C      -0.598844   -1.708445    0.897847
O       0.357052   -0.665840    1.194591
C      -1.355895   -0.779656   -0.100506
O      -1.416520   -1.428030   -1.348611
H       1.060706    1.874676    0.261147
H      -0.362066    2.013607   -0.787936
H      -0.561589    1.856019    0.972679
H       0.662549    0.003865   -2.118984
H       1.801388   -0.751946   -0.969226
H       0.106633   -2.464134   -2.307338
H      -0.602962   -3.629574   -0.157803
H       1.028657   -3.012039    0.228229
H      -1.071233   -2.112251    1.794364
H      -2.300916   -0.313339    0.167104
