19

C      -0.232194    1.937924    0.266441
C       0.076630    0.462443    0.038730
O       0.987049    0.072865    1.085780
C       1.720458   -1.038661    0.864112
N       2.483730   -1.476879    1.768602
C      -1.158119   -0.413884    0.069566
C      -1.974901   -0.506749    1.326685
N      -1.402712   -1.030123   -1.023820
O      -2.571486   -1.795827   -0.948370
H       0.694071    2.517563    0.247420
H      -0.898188    2.306038   -0.518558
H      -0.712023    2.092752    1.236441
H       0.556829    0.327436   -0.937032
H       1.577026   -1.467604   -0.136102
H       2.976496   -2.302169    1.433146
H      -2.844150    0.159152    1.274619
H      -2.355933   -1.521671    1.455943
H      -1.373403   -0.226975    2.193504
H      -2.597261   -2.215910   -1.814808
