17

O      -0.049463    1.445786   -0.032637
C       0.008791    0.053578    0.033880
C       1.134448   -0.496943   -0.821723
C       2.494260   -0.015585   -0.345359
O       3.434783   -0.742343   -0.151492
C      -0.359999   -0.622880    1.322648
C      -1.305768   -0.722925    0.120387
C      -2.513630    0.042895    0.099954
C      -3.478600    0.763152    0.053652
H      -0.976396    1.710162   -0.115646
H       1.138358   -1.589829   -0.829297
H       0.992084   -0.137136   -1.850032
H       2.565367    1.081246   -0.187208
H       0.160158   -1.528749    1.614117
H      -0.675263    0.016137    2.138774
H      -1.343638   -1.678315   -0.393720
H      -4.357811    1.358799    0.032447
