20

C       0.017695    1.478780   -0.008706
C       0.004694   -0.026107    0.077799
N      -0.041385   -0.664212    1.184125
O      -0.058460    0.209099    2.287287
C       0.050520   -0.822871   -1.200904
C       1.364097   -0.606497   -2.023390
C       1.541214   -1.933366   -2.722076
C       0.752755   -2.876961   -2.211463
C      -0.093633   -2.360994   -1.073624
H       0.951558    1.879716    0.400174
H      -0.085944    1.819441   -1.040696
H      -0.791112    1.899907    0.595351
H      -0.119598   -0.404670    3.026470
H      -0.772112   -0.460410   -1.832876
H       1.289564    0.240701   -2.714156
H       2.218977   -0.397009   -1.364472
H       2.266540   -2.079369   -3.515025
H       0.734486   -3.914562   -2.526777
H       0.282342   -2.713836   -0.106361
H      -1.140638   -2.677963   -1.130596
