23

C      -0.120915    1.561274    0.046845
C       0.064429    0.045822    0.016328
C       0.807730   -0.486103   -1.237628
C       1.267859   -1.886383   -0.803299
C       2.512943   -2.570142   -1.401025
C       3.204505   -3.234483   -0.174291
C       2.731998   -2.375746    0.986066
C       1.668589   -1.654360    0.640451
C       0.867547   -0.524410    1.231380
H       0.848177    2.074175    0.034169
H      -0.693630    1.910668   -0.819114
H      -0.654501    1.881251    0.948556
H      -0.929175   -0.421985    0.028015
H       0.174511   -0.473665   -2.130390
H       1.684956    0.142582   -1.443775
H       0.401920   -2.567116   -0.846666
H       2.285169   -3.281414   -2.199856
H       3.180010   -1.806791   -1.818894
H       2.888686   -4.281612   -0.053929
H       4.296125   -3.255109   -0.270121
H       3.226689   -2.368979    1.951573
H       1.527901    0.239880    1.659876
H       0.197356   -0.841009    2.038836
