18

O       0.028973    1.512625   -0.230730
C       0.023125    0.127436   -0.049978
C       0.089038   -0.522212    1.374189
C      -1.410609   -0.128407    1.540219
C      -1.309963   -0.684293    0.086781
C      -0.454240   -1.828355    0.714888
N       0.392319   -2.661005   -0.100468
C       0.430696   -4.018175    0.030816
O      -0.218540   -4.668652    0.820739
H      -0.585912    1.922226    0.385729
H       0.742119   -0.241436   -0.784768
H       0.884882   -0.438284    2.115013
H      -1.994926   -0.719042    2.249530
H      -1.643623    0.932018    1.659922
H      -2.113153   -0.785576   -0.643882
H      -0.995081   -2.492887    1.386402
H       0.987453   -2.250782   -0.800795
H       1.142284   -4.474735   -0.685703
