18

C       0.053034    1.500545    0.051173
C       0.035776   -0.030490   -0.045023
C       0.640693   -0.550970   -1.312964
N       2.102414   -0.257613   -1.740877
C       1.591399   -1.163259   -2.867031
C       0.981863   -2.033116   -1.719494
O       1.852673   -2.733417   -0.896793
C       0.313155   -0.310208   -2.798773
O      -0.403479    0.348212   -3.490853
H       1.078431    1.884794    0.050830
H      -0.479986    1.951328   -0.791435
H      -0.425081    1.836856    0.975260
H       0.565354   -0.477220    0.805365
H      -0.996970   -0.397086    0.004986
H       2.214002    0.707433   -2.060828
H       2.227974   -1.459267   -3.697841
H       0.144324   -2.682021   -1.976628
H       2.581922   -2.123526   -0.710598
