14

O       0.077413    1.446133   -0.082277
C      -0.038929    0.086255   -0.080372
C       0.438312   -0.771517   -1.268687
C      -0.539378   -1.839467   -0.756826
C      -0.474842   -1.862866    0.774802
C      -1.362267   -0.853404   -0.006027
C       0.350246   -0.692617    1.178778
O       0.834857   -0.288632    2.205070
H       0.302407    1.710266    0.822244
H       0.094286   -0.357113   -2.219873
H       1.507809   -1.003695   -1.319395
H      -0.883394   -2.721547   -1.280062
H      -0.806718   -2.703160    1.367246
H      -2.415424   -0.663066    0.129750
