17

C      -0.009680    1.597365    0.135887
O       1.399139    1.908554   -0.025420
C       2.128923    0.825132   -0.645768
C       1.039599   -0.165636   -0.940115
C      -0.076348    0.077168    0.077599
C      -0.770273   -0.799321   -0.994515
C       0.038293   -0.167475   -2.157471
O       0.511842   -1.437073   -2.697153
C       0.558489   -1.620719   -1.258961
H      -0.324366    2.031239    1.088500
H      -0.590304    2.070454   -0.669280
H       2.644068    1.200765   -1.536533
H       2.877390    0.441260    0.059525
H       0.064539   -0.394557    1.054550
H      -1.784497   -1.195705   -1.042420
H      -0.225486    0.625414   -2.855230
H       0.884818   -2.578299   -0.854195
