16

C      -0.029324    1.498969   -0.008547
C      -0.026443    0.012425   -0.027164
N      -0.080373   -0.731300   -1.090798
N      -0.055765   -2.069325   -0.695104
C       0.012596   -2.105261    0.599964
C       0.059710   -3.344776    1.424982
N       0.034792   -0.804519    1.107656
C       0.103559   -0.428670    2.450120
O       0.120557    0.708074    2.838416
H       0.874478    1.894712    0.462916
H      -0.086128    1.846836   -1.040931
H      -0.878708    1.890206    0.558141
H       0.977422   -3.409349    2.019502
H      -0.791688   -3.415914    2.110479
H       0.027866   -4.196817    0.744734
H       0.140751   -1.303750    3.120141
