23

C      -1.409488    0.730497    0.500267
C      -0.326805   -0.289804    0.212718
O       0.542502    0.130477   -0.866939
C       1.716347   -0.261402   -0.135112
C       0.904277   -0.499716    1.157478
C       1.106671    0.441331    2.333102
C       0.214444    0.136084    3.524657
C       2.510049    0.914059    2.643182
C       1.491382    1.883363    2.095743
H      -0.994676    1.676089    0.855280
H      -1.966806    0.924536   -0.422287
H      -2.117239    0.351182    1.244394
H      -0.795442   -1.253067   -0.041766
H       2.174844   -1.170282   -0.548110
H       2.472019    0.532201   -0.122901
H       0.976049   -1.527532    1.527864
H       0.375721   -0.887940    3.882672
H       0.423566    0.815499    4.356831
H      -0.846861    0.236934    3.275371
H       2.793449    1.002307    3.686734
H       3.321565    0.604818    1.992860
H       1.608706    2.228766    1.074248
H       1.085099    2.632454    2.767451
