18

C       0.003032    1.492070    0.014714
C      -0.039966   -0.039361   -0.043231
C      -1.426092   -0.585987    0.084010
C      -2.643876   -0.152362    0.830839
C      -3.265406   -1.565769    0.754865
C      -3.188357   -1.440039   -0.758603
N      -2.610562   -0.030643   -0.674344
C      -2.026162   -2.033388   -0.028201
O      -1.473589   -3.274479   -0.175463
H       1.020964    1.856969   -0.147746
H      -0.646645    1.921591   -0.752419
H      -0.333912    1.861418    0.988821
H       0.386815   -0.388362   -0.992709
H       0.587199   -0.465673    0.751260
H      -2.827476    0.700885    1.474776
H      -3.942623   -2.127479    1.382349
H      -3.823464   -1.807614   -1.554453
H      -1.171541   -3.585315    0.686012
