15

N      -0.086402    1.283486    0.016300
C       0.006735   -0.066453    0.178049
O       0.921609   -0.653113    0.707561
O      -1.107711   -0.671775   -0.315555
C      -1.109692   -2.089086   -0.185097
C      -1.431586   -2.667541    1.202933
O      -2.592046   -3.353230    0.677934
C      -2.445024   -2.715386   -0.606915
H       0.748258    1.817006    0.185212
H      -0.781008    1.660149   -0.605201
H      -0.215578   -2.503685   -0.651701
H      -0.696448   -3.357023    1.628411
H      -1.697379   -1.905529    1.945676
H      -3.228404   -1.971342   -0.799178
H      -2.414721   -3.438696   -1.429053
