16

O       0.069814    1.384656    0.096522
C       0.057684   -0.023999    0.030773
C      -1.359908   -0.602726   -0.035862
N      -2.115329    0.002359   -1.154646
C      -1.496039   -1.355677   -1.301578
C      -0.169244   -1.301810   -1.977088
C       0.702017   -0.569928   -1.261762
C       2.028516   -0.235393   -1.613312
C       3.170062    0.056485   -1.866412
H      -0.563930    1.673493   -0.575757
H       0.600308   -0.374003    0.915105
H      -1.882870   -0.874409    0.873537
H      -3.111843   -0.105222   -0.972672
H      -2.152106   -2.211643   -1.410514
H       0.037681   -1.759372   -2.936388
H       4.172148    0.317304   -2.101023
