15

C      -0.035504    1.493012    0.011794
C       0.036344   -0.006770   -0.080234
C       0.730390   -0.690849   -1.206970
N       1.382705   -0.617314    0.117137
C       1.276468   -1.927888    0.665635
O       1.628763   -2.288536    1.739432
O       0.690732   -2.793740   -0.255530
C       0.409467   -2.123548   -1.436363
N       0.002942   -2.653926   -2.499033
H       0.837902    1.953145   -0.456264
H      -0.938040    1.858528   -0.488138
H      -0.070752    1.809117    1.058448
H      -0.793719   -0.547764    0.370347
H       1.160895   -0.119691   -2.020552
H      -0.106569   -3.663471   -2.395162
