18

C       0.070875    1.534948    0.035423
C      -0.044634    0.040561    0.060943
C      -1.352095   -0.764398   -0.043167
C      -0.777862   -1.803820    0.959512
O      -0.670197   -3.094091    0.396399
C       0.522707   -0.990291    1.051495
N       1.095831   -0.775366   -0.282949
C       1.361908   -0.806122    2.243238
O       1.104114   -1.292860    3.321142
H       1.087220    1.851224    0.280434
H      -0.165943    1.912449   -0.966586
H      -0.627205    1.997730    0.739876
H      -2.227190   -0.240370    0.346854
H      -1.579243   -1.157616   -1.038453
H      -1.313851   -1.815783    1.914357
H      -0.267088   -3.673839    1.052153
H       0.865814   -1.564937   -0.886667
H       2.262103   -0.174953    2.081077
