16

O      -0.171333    1.423174   -0.330993
C       0.008308    0.090318    0.129321
C      -1.352815   -0.559592    0.086772
C      -1.868459   -1.204047   -1.146717
C      -1.533102   -2.087523    0.052817
C      -0.366568   -2.988867   -0.042835
O       0.599064   -2.840458   -0.758057
C      -0.441083   -4.175972    0.840175
N      -0.501377   -5.101536    1.530793
H       0.689516    1.852105   -0.340218
H       0.713384   -0.466599   -0.498996
H       0.391533    0.074338    1.162093
H      -2.085871   -0.064037    0.716752
H      -2.916905   -1.110745   -1.403678
H      -1.185395   -1.290826   -1.984855
H      -2.354294   -2.476072    0.643537
