18

C       0.442695    1.507355   -0.396675
C       0.029800    0.109120    0.043515
O       0.125170   -0.778374   -1.077584
C       0.948456   -1.896157   -0.773134
C       1.874825   -1.430631    0.347024
C       0.915177   -0.535102    1.163326
C       1.566964    0.394931    2.069446
C       2.112346    1.153554    2.826320
H       1.500225    1.537035   -0.675879
H      -0.149726    1.800964   -1.267576
H       0.276648    2.233109    0.403768
H      -1.015251    0.130086    0.380385
H       0.337088   -2.752233   -0.443638
H       1.477035   -2.190020   -1.685167
H       2.291704   -2.247625    0.939646
H       2.701290   -0.834416   -0.050370
H       0.267886   -1.194483    1.755597
H       2.593192    1.825475    3.493265
