18

C       0.001926    1.608943   -0.067403
C       0.014161    0.074836   -0.011755
C       0.717063   -0.585468   -1.183876
C       1.549560   -1.563337   -0.826577
C       1.595038   -1.734340    0.668514
O       2.797678   -1.200397    1.282010
C       2.099460    0.003073    1.669039
C       0.734532   -0.560137    1.201337
H       1.012693    2.022728   -0.129854
H      -0.550721    1.956966   -0.946350
H      -0.484183    2.031789    0.818020
H      -1.036523   -0.251934   -0.000120
H       0.527034   -0.272840   -2.206657
H       2.144839   -2.167112   -1.502247
H       1.406237   -2.757861    1.012107
H       2.193806    0.193354    2.744255
H       2.464214    0.880971    1.122102
H       0.059736   -0.789910    2.026388
