21

C      -0.147871    1.546703    0.060886
C       0.185567    0.054530   -0.055153
C       0.816877   -0.508748    1.210963
C      -0.148043   -0.849681    2.403898
O      -0.528456   -2.066001    1.672688
C       0.894784   -2.070224    1.325149
C       1.560856   -2.252588    2.707247
C       2.704989   -3.149235    3.023394
C       0.833367   -1.406002    3.444543
H       0.748189    2.140620    0.273542
H      -0.586102    1.926633   -0.866985
H      -0.866345    1.733262    0.866383
H      -0.716817   -0.519268   -0.287349
H       0.881795   -0.096064   -0.891178
H       1.727481    0.034219    1.484323
H      -0.986559   -0.225172    2.711263
H       1.160053   -2.728867    0.496738
H       3.587052   -2.901200    2.418908
H       2.988937   -3.079618    4.077145
H       2.462442   -4.196977    2.804665
H       0.897397   -1.150442    4.492330
