14

C      -0.014267    1.454763    0.008873
N       0.006171   -0.005352   -0.022733
C      -0.103302   -0.705943   -1.195974
C      -0.080621   -2.061293   -1.188525
N       0.050902   -2.771673   -0.022697
C       0.152318   -2.108821    1.066411
F       0.280241   -2.764629    2.205757
C       0.143799   -0.644013    1.214113
O       0.241128   -0.024878    2.257251
H       0.911660    1.829450    0.451339
H      -0.123873    1.832320   -1.007583
H      -0.843542    1.801142    0.630048
H      -0.205894   -0.120724   -2.100541
H      -0.165749   -2.630024   -2.104731
