18

O      -0.122474    1.326202    0.033464
C       0.023744   -0.043814    0.030669
C       0.661871   -0.963066   -1.065562
C       0.077101   -1.917782    0.037113
O       0.125032   -3.290151    0.095880
C       0.684368   -0.976646    1.108358
C      -1.164026   -1.004047    0.048234
C      -2.470689   -1.008521    0.706195
N      -2.339048   -1.100274   -0.786625
H       0.747230    1.732551   -0.041402
H       0.169360   -0.976311   -2.040309
H       1.752144   -0.939743   -1.146343
H      -0.464144   -3.632259   -0.586880
H       1.776067   -0.955244    1.159282
H       0.219423   -0.991690    2.096228
H      -2.854376   -1.908613    1.178961
H      -2.841215   -0.077250    1.126956
H      -2.558404   -0.196461   -1.201865
