20

C       0.065854    1.546495    0.015504
C       1.351863    0.770834   -0.020191
C       0.018872    0.035650   -0.016454
C      -0.443165   -0.669908    1.248928
N      -0.212155   -2.129039    1.228913
C      -1.394758   -2.968121    1.022296
C      -0.391577   -2.792376   -0.067591
C      -0.646211   -1.965839   -1.272324
C      -0.406456   -0.653302   -1.260619
H      -0.211901    2.037942    0.942714
H      -0.240231    2.080508   -0.878352
H       1.927677    0.769675   -0.939007
H       1.950426    0.720795    0.883173
H       0.080464   -0.260431    2.121053
H      -1.512385   -0.454836    1.388510
H      -1.427341   -3.891048    1.596187
H      -2.354109   -2.468034    0.899623
H       0.307696   -3.613672   -0.231284
H      -0.952127   -2.475652   -2.181767
H      -0.516799   -0.056967   -2.163168
