21

C      -0.433523    1.711492    0.550959
C      -0.113734    0.270501    0.142764
C       0.834567   -0.456888    1.099261
C       0.221960   -0.818518    2.473529
C      -0.016238   -2.262614    1.953526
C       0.990285   -1.978669    0.805768
O       2.054123    0.302782    1.259168
C       2.968962    0.247955    0.277889
O       3.986544    0.876923    0.306584
H       0.474811    2.316835    0.603995
H      -1.110326    2.173878   -0.173114
H      -0.917763    1.752780    1.531646
H      -1.038325   -0.315650    0.072947
H       0.327969    0.257864   -0.862571
H       0.990478   -0.781824    3.248381
H      -0.643759   -0.240316    2.802771
H       0.231818   -3.078985    2.633345
H      -1.034647   -2.415107    1.588359
H       0.734906   -2.321589   -0.200124
H       1.995232   -2.327509    1.056925
H       2.692772   -0.438772   -0.543904
