19

C      -0.016433    1.399067    0.058783
O      -0.006908   -0.014234    0.145858
C      -1.256686   -0.598583   -0.052837
O      -1.773204   -0.380671   -1.359380
C      -1.439517   -1.376949   -2.333619
C      -1.316816   -2.739268   -1.666915
C      -2.280189   -2.848398   -0.463916
C      -1.122473   -2.097297    0.222039
O      -0.190660   -2.649965   -0.745167
H       1.005707    1.735911    0.243346
H      -0.339804    1.738739   -0.931609
H      -0.681307    1.842042    0.816477
H      -2.004921   -0.140992    0.616083
H      -2.244069   -1.356665   -3.077137
H      -0.489405   -1.136504   -2.828813
H      -1.220990   -3.562648   -2.379745
H      -3.255584   -2.363539   -0.527552
H      -2.369389   -3.873771   -0.104966
H      -0.838640   -2.306721    1.255165
