17

O       0.074374    1.447401   -0.131053
C      -0.030503    0.068529   -0.043869
C       0.106822   -0.666050    1.325146
C      -1.088359   -0.007144    2.067455
C      -2.109372    0.020968    1.183378
C      -1.467914   -0.653374   -0.013578
C      -1.638235   -1.604732   -1.196081
O      -0.536205   -2.418888   -0.654988
C      -0.739886   -1.816386    0.655796
H      -0.477832    1.819967    0.570153
H       0.607059   -0.350304   -0.821775
H       1.043871   -0.778969    1.872013
H      -1.066970    0.360540    3.083670
H      -3.110577    0.408070    1.306757
H      -2.571474   -2.181612   -1.217523
H      -1.404070   -1.222693   -2.194273
H      -1.250488   -2.503828    1.335743
