12

N       0.007083    1.319875   -0.129234
C      -0.003844   -0.048888   -0.026967
N      -1.089514   -0.787345    0.014189
N      -0.564746   -2.059162   -0.005342
N      -1.042354   -3.318169    0.017532
N       0.025740   -4.066568    0.002394
N       1.196189   -3.347541   -0.022540
C       0.774390   -2.103256   -0.027514
N       1.172169   -0.785291   -0.027002
H       0.664330    1.792140    0.477422
H      -0.922962    1.710794   -0.055507
H       2.095282   -0.437875   -0.221241
