13

O       0.014684   -0.104876    0.001516
C      -0.002834    1.110438    0.005715
C       1.209771    1.905149    0.000405
C       2.220827    2.557832   -0.004061
C      -1.226078    1.878710    0.016472
C      -2.255496    2.506621    0.025513
C      -3.514779    3.247507    0.037258
C      -3.348650    4.700980    0.043402
C      -3.225742    5.894524    0.048539
H       3.117362    3.129053   -0.008031
H      -4.111061    2.944462   -0.834833
H      -4.099986    2.935791    0.913783
H      -3.112755    6.950569    0.053074
