14

N      -0.065297    1.070797   -0.076565
C      -0.185647   -0.272555   -0.276218
O       0.715466   -0.982613   -0.673470
C      -1.516755   -0.796269    0.016180
C      -2.591334   -1.294352    0.237874
C      -3.888335   -1.908455    0.489792
O      -3.791917   -3.299881    0.827820
C      -3.667286   -4.167413   -0.204446
O      -3.570153   -5.342772   -0.037569
H       0.842095    1.488931   -0.204121
H      -0.803970    1.610683    0.339357
H      -4.380732   -1.439655    1.345811
H      -4.542331   -1.772130   -0.381960
H      -3.677938   -3.668392   -1.192361
