21

C      -0.719082    1.521417    0.220647
C      -0.169754    0.150834   -0.018100
C      -0.278053   -0.587390   -1.124949
C       0.454408   -1.901710   -1.024622
C       0.764732   -2.015024    0.494453
C       2.091330   -2.716836    0.824831
C       2.082278   -4.171597    0.416288
O       2.874184   -4.691003   -0.327246
C       0.667200   -0.561477    1.025669
H       0.083792    2.237456    0.439708
H      -1.274631    1.890452   -0.645778
H      -1.390822    1.535953    1.088597
H      -0.796868   -0.274646   -2.025369
H      -0.129010   -2.753629   -1.393476
H       1.378364   -1.886319   -1.621933
H      -0.050167   -2.587673    0.955646
H       2.937965   -2.220397    0.340039
H       2.252487   -2.685170    1.912705
H       1.248671   -4.763711    0.865866
H       1.659700   -0.091502    1.103628
H       0.229715   -0.515079    2.030690
