17

C      -0.923386    0.786466   -0.839097
N       0.079724    0.278625    0.092010
C      -0.437711   -0.690571    1.042478
C      -0.881064   -2.019283    0.450655
N      -0.117637   -2.542480   -0.523650
C      -0.524520   -3.710039   -0.994923
C      -1.669947   -4.322287   -0.485051
N      -2.386412   -3.754103    0.479635
N      -1.987116   -2.577354    0.954908
H      -0.450424    1.494551   -1.525505
H      -1.428962    0.013622   -1.442870
H      -1.694085    1.328380   -0.279820
H       0.837222   -0.152207   -0.428260
H       0.345092   -0.904509    1.782780
H      -1.283415   -0.264023    1.589439
H       0.062666   -4.170505   -1.786709
H      -2.026379   -5.279629   -0.851244
