15

O      -0.135183    1.348341   -0.147202
C      -0.021275   -0.015912   -0.066668
C       0.621269   -0.904317   -1.233728
C      -0.169496   -1.988448   -0.534676
C       0.411048   -2.802318    0.380943
C       0.315527   -2.102481    1.707886
O       0.787188   -2.433310    2.770307
C      -0.271481   -0.756583    1.345036
C      -1.120117   -0.979368    0.112113
H       0.694958    1.745437    0.140770
H       0.206121   -0.503793   -2.163514
H       1.703612   -1.037738   -1.309281
H       1.259616   -3.450242    0.187219
H      -0.590784   -0.067083    2.120837
H      -2.196878   -0.902912    0.047180
