16

C      -0.361095    1.448152    0.019192
C      -0.079409   -0.054576    0.087117
N       0.496259   -0.567276   -1.170768
C       1.602572   -1.126738   -0.844713
N       1.925805   -1.107963    0.499763
C       0.922321   -0.427431    1.190267
N       0.804423   -0.144224    2.420564
C       2.516517   -1.770382   -1.819197
O       3.555547   -2.287114   -1.484381
H       0.554156    2.001552   -0.209598
H      -1.098620    1.660782   -0.758067
H      -0.738684    1.786969    0.986726
H      -1.023634   -0.583950    0.267223
H       2.781683   -1.484488    0.873948
H       1.590505   -0.486365    2.974860
H       2.161125   -1.729875   -2.865359
