19

C      -0.089859    1.429914   -0.016604
C       0.044771   -0.077417    0.028057
C       1.406642   -0.659423   -0.217718
C       0.777973   -0.673731    1.194527
C       0.720883   -2.206384    1.154883
O      -0.554522   -2.810349    0.985090
C      -0.475646   -3.517334   -0.238476
O       0.375411   -2.789222   -1.103785
C       1.350529   -2.192055   -0.259532
H       0.801943    1.922905    0.385332
H      -0.230072    1.780794   -1.044347
H      -0.949898    1.764423    0.572860
H      -0.811846   -0.621752   -0.358780
H       2.230796   -0.061657   -0.586873
H       1.050759   -0.088531    2.063985
H       1.298753   -2.704379    1.939665
H      -0.075179   -4.533159   -0.070480
H      -1.473345   -3.574594   -0.683216
H       2.324136   -2.681006   -0.363633
