18

C       0.007075    1.338197    0.212818
N      -0.026546   -0.055510   -0.189084
C      -1.172347   -0.792532   -0.035690
N      -1.227759   -2.114006   -0.010577
C      -2.573556   -2.349831    0.101923
N      -3.054144   -3.632320    0.209249
C      -4.469912   -3.872609    0.000995
N      -3.351357   -1.279670    0.143299
N      -2.408337   -0.265413    0.076793
H       1.018525    1.722535    0.069755
H      -0.656508    1.934272   -0.424737
H      -0.284540    1.499752    1.261525
H       0.798185   -0.598433    0.016475
H      -2.424259   -4.312812   -0.186955
H      -4.679658   -4.930791    0.174721
H      -5.046048   -3.281887    0.717649
H      -4.815850   -3.599792   -1.007241
H      -2.710073    0.690628    0.029932
