15

C       0.124420    1.540745   -0.146453
N       1.516871    1.496878    0.370329
C       1.503208    0.019110    0.493305
C      -0.020756    0.013943    0.072708
N       0.419948   -0.782744   -1.089428
N       0.145200   -1.220726   -2.329266
N       1.317781   -1.548427   -2.824757
C       2.329632   -1.268848   -1.941480
C       1.735820   -0.769669   -0.802065
H      -0.529303    2.141421    0.493209
H      -0.004541    1.853316   -1.187091
H       2.226893    1.861924   -0.254416
H       1.899706   -0.378061    1.426953
H      -0.849628   -0.393217    0.646026
H       3.357055   -1.468413   -2.194159
