17

C       0.133173    1.348407   -0.383911
O       0.047969    0.061862    0.224271
C      -1.171057   -0.538193    0.122698
C      -1.909061   -1.040812    1.179762
C      -1.618175   -1.027221    2.641109
N      -3.009125   -1.607757    0.619745
N      -3.043766   -1.500556   -0.735234
C      -1.927628   -0.859111   -1.033377
O      -1.588447   -0.553908   -2.307059
H       1.155474    1.698335   -0.225615
H      -0.073936    1.295928   -1.457994
H      -0.569393    2.051727    0.082606
H      -2.432521   -0.572411    3.216454
H      -1.452988   -2.035747    3.038058
H      -0.709879   -0.446370    2.814622
H      -3.756264   -2.090900    1.085369
H      -2.296402   -0.886376   -2.873410
