17

O      -0.041279    0.023480    0.108643
C       0.007520    1.217884    0.027420
N      -0.979805    2.193072   -0.002742
C      -0.063231    3.331361   -0.010223
C       0.395652    3.822849    1.394973
C       1.551945    2.807409    1.330674
C       2.931256    3.021220    1.822773
N       2.078800    1.957051    2.386910
C       1.114994    2.296951   -0.054153
H      -1.936048    2.135508    0.321734
H      -0.246408    4.072992   -0.787117
H       0.726183    4.864956    1.414771
H      -0.341614    3.667836    2.188214
H       3.779508    2.663820    1.244564
H       3.126497    3.913035    2.414217
H       1.703488    2.240141    3.289006
H       1.853756    2.222386   -0.849715
