21

C      -0.068716    1.575221    0.049926
C       1.484439    1.455533   -0.002667
C       1.751176    0.837339    1.384820
C       0.745234   -0.362995    1.314417
C       1.446104   -1.712258    1.090848
C       2.518911   -1.591537    0.001112
O       2.102680   -0.844733   -1.137652
C       1.208145    0.213163   -0.926898
C      -0.007685    0.027689    0.017997
H      -0.496945    2.052522    0.934853
H      -0.507373    1.998817   -0.856659
H       2.118392    2.282084   -0.323585
H       2.786667    0.530522    1.544147
H       1.493840    1.539652    2.183188
H       0.087404   -0.407622    2.186572
H       1.924006   -2.071379    2.009790
H       0.699146   -2.462094    0.802433
H       3.430088   -1.142080    0.420320
H       2.798661   -2.580300   -0.376687
H       0.911087    0.541206   -1.925653
H      -0.862384   -0.590495   -0.260314
