19

C      -0.081547    1.545804    0.020918
C       0.028288    0.025670   -0.028799
C       0.973666   -0.537899   -1.085648
C       2.325927   -0.605626   -0.375106
O       2.148140   -0.140559    0.950940
C       0.818479   -0.614906    1.141902
O       0.872803   -1.989701    0.787536
C       1.479837   -1.850631   -0.493568
C       1.793827   -3.123952   -1.206698
H       0.905001    2.001645    0.137005
H      -0.534100    1.935887   -0.896144
H      -0.707609    1.867412    0.860570
H      -0.959046   -0.442723   -0.089316
H       0.867257   -0.366099   -2.147982
H       3.303003   -0.432199   -0.801632
H       0.493062   -0.477672    2.169902
H       0.880372   -3.680272   -1.440881
H       2.314188   -2.914248   -2.145576
H       2.436629   -3.761683   -0.591815
