16

C      -0.021276    1.477229    0.079965
C       0.035931   -0.022377   -0.009489
C      -0.027909   -0.688284   -1.220515
C       0.034959   -2.094400   -1.181958
N       0.021018   -2.848284   -2.320270
N       0.147141   -2.764489   -0.029775
C       0.203000   -2.011802    1.062079
O       0.318848   -2.690440    2.215728
N       0.154194   -0.684403    1.156459
H       0.885480    1.859207    0.559873
H      -0.122568    1.940240   -0.904035
H      -0.865110    1.784328    0.705999
H      -0.116730   -0.152871   -2.157832
H      -0.333495   -2.442996   -3.169434
H      -0.126800   -3.836535   -2.190649
H       0.343643   -2.017281    2.909388
