11

N      -0.001787    1.448829    0.173882
C      -0.010370    0.048860    0.046933
C      -1.098222   -0.804284    0.024654
N      -0.585811   -2.067296   -0.026525
N       0.751189   -2.097398   -0.041972
C       1.110437   -0.815007    0.004549
H       0.817440    1.865117   -0.249799
H      -0.826263    1.883232   -0.220209
H      -2.159710   -0.617044    0.045623
H      -1.094871   -2.933229   -0.056612
H       2.157198   -0.546646    0.008255
