21

O       0.028770    1.366193   -0.089868
C       0.055632   -0.046315    0.060593
C      -1.373092   -0.544990    0.037257
C      -2.159394   -0.464944   -1.301122
C      -2.744174   -1.859752   -0.991422
C      -4.223452   -2.021724   -0.574619
C      -4.296214   -3.014214   -1.750005
O      -2.904103   -2.804747   -2.064097
C      -1.608859   -2.081300    0.033546
H       0.935761    1.685079   -0.107941
H       0.622488   -0.524063   -0.756113
H       0.537893   -0.338725    1.008585
H      -1.930584   -0.060920    0.845302
H      -2.856436    0.362867   -1.450256
H      -1.484931   -0.523302   -2.161614
H      -4.382637   -2.454279    0.415277
H      -4.835750   -1.123794   -0.678223
H      -4.503339   -4.057833   -1.484237
H      -4.950840   -2.724007   -2.580535
H      -0.778851   -2.613995   -0.442997
H      -1.857343   -2.577592    0.975544
