15

C      -0.084979    1.428637   -0.087910
N       0.005191   -0.030616    0.009548
C       0.096701   -0.628650    1.254133
O       0.057821   -0.030346    2.301419
C       0.022095   -0.791728   -1.143586
C      -0.114551   -2.128199   -1.406471
C       0.025700   -2.183514   -2.815233
N       0.215512   -1.009751   -3.363098
O       0.217400   -0.110254   -2.280452
H       0.800504    1.835954   -0.581495
H      -0.970640    1.714366   -0.659803
H      -0.154105    1.808395    0.929752
H       0.218066   -1.721986    1.183722
H      -0.309222   -2.937144   -0.725416
H      -0.016823   -3.053936   -3.455371
