18

C       0.440078    1.580076    0.072577
C      -0.154073    0.174434   -0.090349
C       0.450885   -0.557352   -1.293553
C      -0.036526   -2.011170   -1.408238
C       0.791979   -2.951340   -0.570077
O       1.374953   -3.908474   -0.986913
O       0.895517   -2.682685    0.779552
C       0.336041   -1.633750    1.494805
N      -0.084972   -0.493087    1.197576
H       1.512848    1.521170    0.283396
H       0.300942    2.166177   -0.840890
H      -0.040781    2.100690    0.903506
H      -1.230302    0.293874   -0.287057
H       0.170241   -0.012949   -2.201057
H       1.546489   -0.531136   -1.244904
H      -1.087343   -2.079775   -1.098855
H       0.034260   -2.381569   -2.431767
H       0.330785   -1.950909    2.536700
