14

N      -0.169521    1.135580   -0.855373
C      -0.036324    0.073437   -0.194450
N       0.965710   -0.599835    0.484782
C       0.184882   -1.820875    0.743147
C       0.120234   -2.258940    2.123432
C       0.064743   -2.642446    3.260059
C      -1.054678   -1.043415    0.125639
C      -2.139619   -0.703276    1.024658
N      -3.009091   -0.440209    1.738327
H       0.701728    1.661834   -0.930490
H       1.965852   -0.525930    0.370130
H       0.466010   -2.659084    0.093971
H       0.004961   -2.967701    4.269844
H      -1.447911   -1.521626   -0.773699
