14

N       0.053040    1.346729    0.108717
C      -0.037047   -0.006957    0.034578
C      -1.154988   -0.775109    0.021532
C      -0.809263   -2.189586   -0.014119
O      -1.556689   -3.145612   -0.036758
C       0.733438   -2.286789   -0.023412
C       1.232597   -0.832303    0.009209
H       0.926931    1.791577   -0.116785
H      -0.771526    1.905232   -0.038191
H      -2.177012   -0.419268    0.034242
H       1.065028   -2.869146    0.840628
H       1.057393   -2.829039   -0.915964
H       1.839307   -0.570802   -0.866961
H       1.846350   -0.610129    0.890181
