17

C       0.107208    1.574259   -0.063906
C       0.083065    0.055490    0.018009
C       0.983498   -0.772830   -0.945292
C       1.290942   -1.739508    0.232696
O       2.603438   -2.190104    0.430384
C       0.776378   -0.641997    1.219424
O       1.864369    0.147782    1.688436
H       1.124980    1.955031    0.052980
H      -0.278066    1.913362   -1.031520
H      -0.510035    2.026884    0.719603
H      -0.949617   -0.306167   -0.037550
H       0.527900   -1.192692   -1.844959
H       1.880633   -0.215005   -1.232685
H       0.645977   -2.622552    0.223331
H       3.126358   -1.392872    0.586205
H       0.139372   -0.956765    2.055058
H       2.242505   -0.308035    2.447237
