15

C      -0.335179    1.312091    0.000725
C       0.135040   -0.119190    0.029489
O       1.410615   -0.303753   -0.716448
C       2.088543   -0.624438    0.407062
O       3.257866   -0.760959    0.580670
C       0.837285   -0.623226    1.319724
O       0.899322    0.214333    2.440084
C       0.406110   -2.024239    1.752676
O      -0.136341   -2.816528    1.030867
H       0.412184    1.985780    0.426127
H      -0.546104    1.617990   -1.027435
H      -1.254117    1.408249    0.586670
H      -0.595411   -0.829006   -0.360090
H       1.804934    0.526994    2.546582
H       0.645775   -2.235368    2.815831
