18

C      -0.177451    1.567434   -0.038719
C       0.008192    0.040642    0.014838
C       0.841465   -0.476658   -1.137100
C       2.016554   -0.968818   -0.746950
C       2.193842   -0.904028    0.749953
C       0.808382   -0.460414    1.231242
C       0.515958   -0.091518    2.618964
O       0.127664   -1.369264    2.108367
H       0.787903    2.082744   -0.000544
H      -0.675483    1.863271   -0.967924
H      -0.789922    1.925244    0.794759
H      -0.982044   -0.431362    0.040684
H       0.502385   -0.406826   -2.165181
H       2.779759   -1.365584   -1.406988
H       2.456213   -1.866626    1.203200
H       2.980959   -0.192169    1.034218
H       1.314809   -0.105289    3.360920
H      -0.302842    0.591013    2.844629
