18

O       0.230859    1.380807    0.098411
C       0.108976   -0.007489   -0.063490
C      -1.343275   -0.519654   -0.043486
C      -2.194663    0.094929   -1.163828
O      -2.357733    1.491043   -0.948828
C      -1.461873   -2.042629    0.208864
O      -2.066969   -1.783145    1.520603
C      -2.062116   -0.429678    1.285659
N      -2.588330    0.528104    1.906761
H      -0.491981    1.792785   -0.397837
H       0.561108   -0.355004   -1.011570
H       0.672573   -0.478205    0.751210
H      -1.700588   -0.018682   -2.135095
H      -3.169863   -0.411631   -1.220673
H      -2.719219    1.594481   -0.051957
H      -2.159627   -2.587760   -0.432016
H      -0.523488   -2.592314    0.310109
H      -3.077328    0.227472    2.750872
