14

C      -0.028653    1.519463   -0.014608
C       0.009051    0.023762    0.015631
C      -0.035299   -0.818723   -1.044635
O       0.021913   -2.130201   -0.621605
C       0.100019   -2.099795    0.727860
N       0.242493   -3.338119    1.340249
C       0.095451   -0.816645    1.186103
H       0.871012    1.952542    0.437851
H      -0.099031    1.892978   -1.040021
H      -0.887170    1.911064    0.543480
H      -0.105694   -0.677844   -2.109694
H      -0.235389   -4.074836    0.836494
H      -0.042266   -3.327417    2.309790
H       0.146427   -0.498405    2.215594
