16

N      -0.000793    1.470303    0.134004
C       0.033735    0.055855   -0.019795
C       1.199497   -0.653734    0.731185
C       1.080600   -2.148116    0.744567
C       1.540498   -1.478537   -0.518862
C       0.360612   -0.825023   -1.262752
O      -0.933389   -1.498798   -1.126761
C      -1.311933   -0.702478   -0.056794
O      -2.359185   -0.702754    0.502426
H       0.916917    1.882820    0.004425
H      -0.647105    1.912395   -0.510910
H       1.846621   -0.113957    1.411974
H       1.865687   -2.655453    1.295783
H       0.116560   -2.643860    0.790395
H       2.504437   -1.682905   -0.966628
H       0.514582   -0.441882   -2.269775
