19

C      -0.092089    1.515213    0.103951
C      -0.027933    0.006568    0.053740
O      -1.162850   -0.626863   -0.477087
C       1.321108   -0.683429   -0.163836
C       0.620286   -0.748598    1.161814
O       1.165577   -0.107504    2.328435
C       0.832839   -1.269471    3.105882
C      -0.644686   -1.496907    3.126824
C       0.173562   -1.960951    1.934880
H       0.755811    1.925405    0.657484
H      -0.082737    1.942306   -0.906489
H      -1.012844    1.834943    0.601645
H      -1.192043   -0.434395   -1.421466
H       1.330685   -1.586792   -0.765785
H       2.208341   -0.062263   -0.232992
H       1.547902   -1.595159    3.851189
H      -0.983567   -2.297552    3.777483
H      -1.322054   -0.653150    3.036418
H       0.216548   -2.985588    1.594579
