16

C       0.011854    1.530420   -0.017496
C      -0.099790    0.012840   -0.115320
N       0.835893   -0.505386   -1.104662
C       0.871602   -1.864563   -1.345220
N       1.340484   -2.364376   -2.493116
N       1.255458   -3.684451   -2.299206
N       0.768877   -4.084998   -1.141970
C       0.509256   -2.941519   -0.503471
H       1.030922    1.828710    0.244864
H      -0.248027    2.006475   -0.969989
H      -0.671738    1.916973    0.743151
H       0.147135   -0.434245    0.855089
H      -1.140553   -0.275276   -0.340152
H       0.876700    0.035213   -1.958183
H       1.544559   -4.336689   -3.008319
H       0.092280   -2.942039    0.489511
