19

C       0.087246    1.591477    0.048112
C       0.096233    0.070019   -0.009000
C       0.808848   -0.672278   -1.149340
C       2.304585   -0.746982   -0.806608
C       1.276668   -1.758206   -0.244040
C       1.033111   -0.735614    0.952808
C       0.676899   -1.033667    2.382065
C       2.443612   -0.220963    0.583845
O       3.361057    0.184503    1.244249
H       1.095602    2.005042   -0.054397
H      -0.530275    2.007504   -0.755110
H      -0.324739    1.946905    0.998779
H      -0.922497   -0.325538    0.080383
H       0.505582   -0.755254   -2.186154
H       3.063672   -0.919468   -1.556849
H       1.311928   -2.835265   -0.297865
H       1.452476   -1.636082    2.865343
H       0.586044   -0.102715    2.951798
H      -0.274938   -1.569492    2.457059
