25

C       0.053271    1.557187    0.085466
C      -0.035567    0.031920    0.164157
C      -1.444788   -0.508144   -0.121819
O      -1.910927   -0.091072   -1.409230
C      -1.508170   -2.013310    0.032361
C      -1.870552   -2.658988    1.353796
C      -2.805305   -2.781753    0.171731
C      -4.129022   -2.039367    0.202436
C      -2.880164   -4.128471   -0.525238
H       1.079455    1.904580    0.239120
H      -0.290605    1.911485   -0.889764
H      -0.576079    2.027553    0.849414
H       0.662720   -0.421705   -0.554820
H       0.277545   -0.319895    1.154927
H      -2.143338   -0.036003    0.578843
H      -1.383102   -0.553651   -2.069734
H      -0.732172   -2.527393   -0.536227
H      -1.311041   -3.531337    1.675795
H      -2.165894   -2.000359    2.165535
H      -4.073383   -1.113154    0.779189
H      -4.455968   -1.777955   -0.809549
H      -4.905481   -2.664493    0.658792
H      -3.596956   -4.791286   -0.025770
H      -3.205168   -4.015572   -1.566498
H      -1.908753   -4.633310   -0.530842
