22

C      -0.025854    1.465849    0.035136
N       0.014493    0.011067    0.016795
C      -1.263095   -0.692918   -0.069816
C      -1.512509   -1.413726   -1.404914
C      -0.790531   -2.760840   -1.529423
C       0.735223   -2.699626   -1.386024
C       1.230104   -2.141979   -0.035212
C       1.234079   -0.617890    0.047113
O       2.286159   -0.000575    0.115069
H       0.999960    1.829626    0.062920
H      -0.526364    1.855971   -0.859826
H      -0.564970    1.832071    0.917670
H      -1.364629   -1.405257    0.760338
H      -2.039383    0.061175    0.082679
H      -2.591401   -1.583296   -1.506690
H      -1.220538   -0.744144   -2.223839
H      -1.186926   -3.440072   -0.761134
H      -1.042564   -3.214413   -2.495091
H       1.133228   -3.713622   -1.504502
H       1.168746   -2.104425   -2.199698
H       0.638453   -2.572955    0.783010
H       2.269630   -2.430176    0.128594
