19

O       0.089353    1.379178   -0.177056
C       0.044939   -0.011860    0.109673
C      -1.354813   -0.548979    0.136490
C      -2.412159   -0.227047    1.203655
C      -2.934534   -1.698451    1.103972
C      -1.876913   -1.978203    0.031192
C      -2.038996   -1.026358   -1.142823
C      -3.306936   -0.534276   -1.600208
C      -4.368227   -0.113395   -1.981321
H      -0.399758    1.520114   -0.994934
H       0.652567   -0.593305   -0.604039
H       0.511732   -0.120332    1.095579
H      -1.961492   -0.007391    2.174032
H      -3.120668    0.565538    0.952308
H      -2.762191   -2.264668    2.021268
H      -3.973407   -1.831885    0.791422
H      -1.323070   -2.901187   -0.099071
H      -1.326697   -1.232050   -1.939707
H      -5.303484    0.255426   -2.322664
