16

O       0.056227   -0.133478    0.176567
C       0.033552    1.061860    0.046261
C       1.276162    1.947352   -0.031276
C       1.249850    2.863665   -1.273330
C       0.349754    4.090292   -1.160129
O      -0.185362    4.623136   -2.107382
N       0.243825    4.602867    0.118221
C       0.787018    3.999784    1.254265
C       1.315657    2.773136    1.233650
H      -0.928539    1.622667    0.006128
H       2.134477    1.272267   -0.087482
H       2.263709    3.250240   -1.438676
H       0.963342    2.326062   -2.179815
H      -0.269396    5.467633    0.198566
H       0.752526    4.609010    2.149839
H       1.714778    2.338028    2.140295
