16

O      -0.371359    1.487277   -0.293416
C      -0.050921    0.136822   -0.040520
C      -1.368795   -0.635109    0.037239
C      -1.716506   -0.827891   -1.446920
N      -0.427344   -1.051516   -2.132144
C       0.650094   -0.557579   -1.260382
C       1.542460    0.389490   -1.946763
N       2.251533    1.165917   -2.427497
H       0.430919    1.959827   -0.546587
H       0.568984    0.034850    0.860161
H      -1.205467   -1.600081    0.529552
H      -2.117581   -0.074329    0.600247
H      -2.394171   -1.665056   -1.631322
H      -2.187538    0.079744   -1.838598
H      -0.285694   -2.030426   -2.338471
H       1.278557   -1.376006   -0.885129
