18

C      -1.138524    1.922547   -0.144593
O      -1.067374    0.774487    0.673775
C      -1.354616   -0.448019    0.013074
C      -0.240188   -0.930667   -0.915370
C      -1.714180   -1.402713    1.144353
O      -1.361540   -2.778210    1.044045
C      -0.751013   -2.011518    2.086216
C       0.679669   -1.808462    2.027541
N       1.826496   -1.666172    2.047477
H      -1.008108    2.787110    0.510219
H      -0.351017    1.942231   -0.910125
H      -2.115273    2.000574   -0.646996
H      -2.272680   -0.322842   -0.587581
H      -0.467346   -1.934523   -1.282366
H      -0.155754   -0.265121   -1.778308
H       0.723501   -0.955664   -0.403981
H      -2.705780   -1.228707    1.563681
H      -1.104042   -2.246976    3.089271
