16

C      -1.109504    0.781770    0.798730
N      -0.368925   -0.339513    0.263090
C       0.754977   -0.654034    0.760205
N       1.528780    0.042363    1.679338
N       1.402364   -1.826725    0.337769
C       0.822620   -2.839031   -0.398499
N       1.556563   -3.601344   -1.114301
C      -0.604552   -3.060007   -0.243257
N      -1.700963   -3.422831   -0.178714
H      -0.795855    1.725866    0.331558
H      -2.170956    0.647446    0.574109
H      -1.016751    0.900765    1.891423
H       1.081943    0.847779    2.089598
H       2.022607   -0.522730    2.355382
H       2.407673   -1.790404    0.234958
H       1.007569   -4.350255   -1.530599
