18

C      -0.054691    1.619238   -0.033835
C       0.109928    0.109343    0.077075
O      -1.108214   -0.566612   -0.225080
C       1.258230   -0.845820   -0.322507
N       2.689341   -0.572262    0.079057
C       2.829832    0.752330    0.709562
C       2.207267   -0.346741    1.487692
C       0.771808   -0.738668    1.119629
O       0.099644   -1.583506    1.967948
H       0.329433    2.012285   -0.981781
H      -1.123655    1.844085    0.019808
H       0.430965    2.154953    0.784027
H      -1.215296   -0.593444   -1.182316
H       1.098350   -1.574590   -1.109400
H       3.867105    0.970526    0.954399
H       2.278983    1.603279    0.338438
H       2.703927   -0.828198    2.323795
H      -0.764301   -1.734636    1.560520
