19

C      -0.190347    1.626896   -0.107211
C      -0.074000    0.126981    0.104065
O      -0.076130   -0.349243    1.216944
C       0.094562   -0.749256   -1.137635
C      -0.834249   -0.366683   -2.292529
C       1.609358   -0.834703   -1.583613
C       1.460190   -2.366116   -1.543668
O       2.117067   -3.261918   -1.986478
C       0.110782   -2.279842   -0.832626
H       0.551514    1.989685   -0.825907
H      -1.177377    1.870754   -0.515641
H      -0.067725    2.135817    0.849290
H      -0.668719    0.660329   -2.630310
H      -0.662939   -1.026020   -3.149875
H      -1.886276   -0.466815   -2.004729
H       1.874502   -0.394996   -2.548798
H       2.312378   -0.478060   -0.823267
H       0.201897   -2.462499    0.242972
H      -0.699590   -2.891303   -1.236983
