22

C       0.073773    1.448492    0.210849
O      -0.002515    0.049483    0.068540
C      -1.302288   -0.545484   -0.098817
C      -2.195882   -0.270830    1.123745
C      -1.971267   -0.029453   -1.380902
C      -0.979152   -2.036900   -0.139718
C      -1.938108   -3.085063   -0.640789
C      -0.662698   -2.799839   -1.397382
H       1.134796    1.687740    0.324336
H      -0.305345    1.990230   -0.667530
H      -0.456481    1.819254    1.099627
H      -2.459708    0.787217    1.211064
H      -3.126731   -0.839264    1.041962
H      -1.686486   -0.577271    2.042329
H      -1.283718   -0.093944   -2.228041
H      -2.872002   -0.603439   -1.615618
H      -2.278694    1.014145   -1.271076
H      -0.392526   -2.321717    0.729298
H      -2.018797   -4.011087   -0.081964
H      -2.870997   -2.765424   -1.093087
H      -0.749868   -2.291597   -2.350629
H       0.138165   -3.529945   -1.360340
