19

C      -0.001018    1.533633   -0.060604
C       0.168994    0.040329   -0.002679
C       0.354576   -0.738677   -1.308513
C       1.097774   -1.995170   -0.884687
O       2.410507   -1.740234   -0.358989
C       1.334480   -1.984719    0.560904
C       0.756163   -0.710969    1.127147
C       1.307783   -0.142095    2.403229
O      -0.672698   -0.666633    0.933204
H       0.865277    2.001936   -0.539282
H      -0.888877    1.791339   -0.648860
H      -0.125765    1.960276    0.936584
H      -0.616753   -0.980624   -1.753728
H       0.932118   -0.165197   -2.041364
H       0.999617   -2.918275   -1.448892
H       1.419660   -2.884450    1.165818
H       2.390647   -0.005147    2.316229
H       0.848798    0.818174    2.646465
H       1.120133   -0.826168    3.238313
