20

C      -0.219771    1.570559   -0.017567
C      -0.006923    0.060800    0.038904
C      -1.248547   -0.694043   -0.420903
O       1.147672   -0.316595   -0.768621
C       1.854681   -0.833505    0.376422
C       0.673440   -0.528963    1.314720
C       0.952410    0.358690    2.511403
O       1.692633   -0.426004    3.438026
H       0.688351    2.114098    0.253830
H      -0.489184    1.862258   -1.037769
H      -1.030144    1.884441    0.649322
H      -1.519955   -0.396101   -1.438899
H      -1.067926   -1.772512   -0.417603
H      -2.099079   -0.482329    0.236833
H       2.121503   -1.889442    0.254668
H       2.768340   -0.262698    0.589749
H       0.167600   -1.429840    1.672006
H       1.523964    1.248470    2.206800
H       0.005200    0.709899    2.952534
H       1.934085    0.133498    4.181952
