20

O      -0.080662    0.224899    0.952997
C      -0.100311    1.237204    0.270776
C      -1.375537    1.563553   -0.510607
C      -1.472235    2.806983   -1.383216
C      -0.277777    2.981800   -2.362142
C       0.369696    3.936139   -1.321783
C      -1.027700    4.112891   -0.667276
C       1.406006    3.279904   -0.425302
N       1.015061    2.035879    0.232187
H      -1.567230    0.668930   -1.114966
H      -2.168770    1.577568    0.246333
H      -2.465336    2.832922   -1.839941
H       0.280703    2.082945   -2.640291
H      -0.565227    3.512066   -3.273472
H       0.826392    4.844150   -1.725702
H      -1.547168    4.993073   -1.054271
H      -1.075887    4.129085    0.425712
H       2.307179    3.083426   -1.024716
H       1.698428    4.001916    0.351350
H       1.733674    1.632237    0.818718
