22

C       1.215204    1.555299   -0.243512
C       1.401754    0.050150   -0.151464
O       0.798595   -0.545514   -1.289320
C       0.868655   -1.974813   -1.341724
C      -0.339883   -2.467824   -2.139264
C      -1.681252   -2.071539   -1.520063
C       2.202446   -2.373197   -1.989345
O       2.364955   -1.742025   -3.244639
H       1.697913    1.951176   -1.141942
H       0.152076    1.807988   -0.287422
H       1.654867    2.047060    0.629299
H       2.472844   -0.198520   -0.096784
H       0.931647   -0.342727    0.764175
H       0.824979   -2.381677   -0.318202
H      -0.256886   -2.077840   -3.159072
H      -0.266971   -3.559537   -2.217739
H      -1.797250   -2.495141   -0.515548
H      -1.760806   -0.984840   -1.436668
H      -2.516266   -2.430326   -2.129309
H       3.034322   -2.125007   -1.309655
H       2.232827   -3.455241   -2.157973
H       2.082772   -0.828577   -3.105531
