16

O       0.001775   -0.050549    0.234967
C      -0.016913    1.162182    0.104891
C      -1.257967    1.895932   -0.119263
C      -1.486549    3.234580   -0.179133
N      -0.661865    4.261157    0.164606
C       0.464641    4.055238    1.062948
C       1.580609    3.258617    0.418889
O       2.056753    2.153503    1.190488
C       1.324867    1.880555   -0.009802
H      -2.105482    1.251231   -0.325863
H      -2.463295    3.567349   -0.522602
H      -1.076711    5.177421    0.168603
H       0.823778    5.033621    1.391270
H       0.137283    3.490953    1.948391
H       2.355645    3.827214   -0.094232
H       1.937397    1.460143   -0.808770
