22

C      -0.022268    1.564290   -0.008047
C       0.047413    0.031008   -0.007709
C       0.707217   -0.498482   -1.282858
O      -0.083874   -0.098234   -2.392147
C       0.756005   -0.500008    1.223273
C       2.221239   -0.297794    1.700927
N       1.648152   -1.181530    2.820349
C       0.413849   -0.268614    2.716278
C       0.988303   -1.966055    1.675047
H       0.983137    2.001287    0.015646
H      -0.523641    1.920581   -0.910065
H      -0.569379    1.936461    0.863471
H      -0.978725   -0.363534    0.003170
H       1.731675   -0.097545   -1.360040
H       0.786316   -1.595884   -1.231919
H       0.357627   -0.383589   -3.197026
H       3.023589   -0.781541    1.135770
H       2.523451    0.695543    2.044831
H       0.574443    0.727761    3.137815
H      -0.499336   -0.723944    3.111318
H       0.119239   -2.551134    1.990888
H       1.694367   -2.580630    1.108723
