16

O       0.548864    0.144391    0.441361
C       0.644152    1.320509    0.611133
O       0.613218    2.204397   -0.412029
C       0.823384    3.580499   -0.106167
C       2.280159    3.975727   -0.294636
C       2.564029    5.470567    0.017597
N       3.433337    5.453384    1.206450
C       3.645017    4.232466    1.461649
O       3.088698    3.268491    0.682988
H       0.748669    1.810018    1.597059
H       0.192811    4.152494   -0.793122
H       0.507484    3.804540    0.921314
H       2.621149    3.662583   -1.284501
H       3.071152    5.981478   -0.806266
H       1.647265    6.032113    0.232743
H       4.255961    3.852568    2.272635
