19

C       0.007342    1.638959   -0.048699
C       0.084183    0.117018   -0.016042
C       1.111587   -0.668891   -0.892582
C       1.236804   -1.730755    0.279038
C       2.242301   -0.748388    0.881696
C       2.518342   -0.137955   -0.489660
O       3.585949   -0.743036   -1.188793
C       0.728478   -0.629165    1.155143
O       0.210947   -0.795377    2.423761
H       0.967284    2.109620    0.183290
H      -0.311701    1.996658   -1.033753
H      -0.723726    2.000705    0.682905
H      -0.911841   -0.311459   -0.181547
H       0.901954   -0.889965   -1.937539
H       1.128247   -2.802838    0.346280
H       2.933521   -0.926706    1.696879
H       2.700766    0.937539   -0.570041
H       3.506669   -1.696784   -1.064034
H       0.474381   -0.041453    2.962756
