20

C       0.054695    1.581716    0.051085
C      -0.033432    0.085941    0.070499
C      -1.331209   -0.744755    0.026880
C      -0.661066   -1.788907    0.987508
C      -0.580444   -3.260911    0.557461
C      -1.952434   -3.894575    0.529236
O      -2.507405   -4.294960   -0.461516
C       0.627978   -0.949083    0.944410
N       1.088698   -0.706869   -0.419384
H       1.079159    1.905311    0.251846
H      -0.236670    1.977188   -0.929361
H      -0.608782    2.026336    0.800564
H      -2.192276   -0.249809    0.482607
H      -1.622814   -1.105934   -0.965499
H      -1.118315   -1.725355    1.980825
H      -0.133149   -3.368905   -0.435369
H       0.038624   -3.809402    1.281271
H      -2.452159   -3.949919    1.525659
H       1.347712   -0.843666    1.749732
H       0.817491   -1.436239   -1.076502
