16

C       0.224276    1.554694    0.021024
C       0.103097    0.053217   -0.016369
O       0.839213   -0.488807   -1.113091
C       1.221049   -1.779112   -0.729123
C       2.458616   -1.895067    0.116291
C       1.089687   -1.815654    0.778332
O       0.685971   -0.524275    1.155370
C       0.525668   -2.911405    1.514602
N       0.085671   -3.805881    2.101162
H       1.275121    1.840950    0.103245
H      -0.195327    1.980806   -0.893396
H      -0.326255    1.948855    0.878471
H      -0.946589   -0.275415   -0.091799
H       0.890064   -2.588231   -1.370335
H       2.965222   -2.853940    0.136471
H       3.080248   -1.014873    0.227979
