20

C       0.441847    1.465305   -0.539381
C      -0.004747    0.128751    0.005172
C       0.975890   -0.956315    0.283789
N       0.273759   -0.290215    1.384944
C       1.006445    0.558289    2.288150
C       0.654056    0.301963    3.747397
O      -0.208989   -0.775221    3.961247
C       2.017388   -0.091303    3.229943
O       2.287088   -1.449126    3.123516
H       1.487654    1.679755   -0.303679
H       0.340997    1.467789   -1.629547
H      -0.174018    2.283339   -0.148848
H      -1.001476   -0.166166   -0.319897
H       0.719162   -1.999996    0.126720
H       2.029197   -0.721641    0.154643
H       1.195305    1.582744    1.980444
H       0.522305    1.122080    4.446773
H      -0.585643   -0.958421    3.078151
H       2.886743    0.498254    3.508673
H       1.529568   -1.890162    3.539964
