12

C       0.040028    1.532457    0.126894
C       0.104938    0.055784   -0.028390
C      -0.018178   -0.765522   -1.109792
O       0.116090   -2.035675   -0.753144
N       0.338329   -2.006887    0.646723
N       0.326290   -0.804280    1.028287
N      -0.258668   -0.460686   -2.497116
O      -0.373251    0.732672   -2.759375
O      -0.327420   -1.391182   -3.280897
H       0.192909    1.792401    1.175260
H       0.802888    2.022746   -0.483775
H      -0.927883    1.917368   -0.205174
