18

O       0.000929    0.048777    0.004842
C      -0.015026    1.247613    0.010741
C      -1.185737    2.242767    0.032226
C      -0.808551    3.065606    1.286134
C       0.765303    3.086680    1.263886
C       1.128791    2.273730   -0.000475
C       0.729678    3.098885   -1.246044
C      -0.844180    3.077848   -1.223797
H      -2.179583    1.798829    0.044175
H      -1.237199    4.070975    1.247914
H      -1.179796    2.584541    2.195139
H       1.165629    4.103148    1.213913
H       1.174839    2.616103    2.161869
H       2.134095    1.856536   -0.016774
H       1.131430    4.114863   -1.197594
H       1.113471    2.637089   -2.159820
H      -1.241172    2.605650   -2.126550
H      -1.271404    4.082747   -1.163593
