18

C      -0.115204    1.593486   -0.151643
C      -0.014730    0.073220   -0.025643
C      -1.402079   -0.584696    0.237777
N      -1.380924   -1.089759    1.623719
C      -0.198256   -0.934022    2.063475
N       0.726335   -0.290344    1.221937
C       1.926700   -0.897315    0.811947
N       2.119293   -1.029284   -0.437787
C       0.904787   -0.544788   -1.120881
H       0.878864    2.048761   -0.198853
H      -0.657851    1.859492   -1.065643
H      -0.650222    2.022355    0.701293
H      -2.213849    0.139920    0.122096
H      -1.618038   -1.421329   -0.439054
H       0.124881   -1.257691    3.048506
H       2.639687   -1.214259    1.567368
H       0.439107   -1.385698   -1.650699
H       1.178460    0.198626   -1.875771
