20

C       0.067590    1.591967    0.102188
C      -0.180722    0.089168   -0.072832
C       0.587930   -0.504683   -1.246413
C       2.102261   -0.795732   -1.111922
C       1.867738   -2.141422   -0.334808
C       2.773516   -2.937359   -1.294541
C       2.049267   -1.923288   -2.199915
C       0.710246   -2.038067   -1.392690
H       1.126644    1.799310    0.290105
H      -0.222110    2.147452   -0.796897
H      -0.505068    1.997159    0.942286
H       0.088458   -0.437504    0.851268
H      -1.254371   -0.087576   -0.222544
H       0.319276    0.010251   -2.179817
H       2.931976   -0.103424   -0.953848
H       1.752139   -2.256749    0.743414
H       3.854262   -2.807734   -1.173798
H       2.528487   -3.994580   -1.441720
H       2.131634   -1.771470   -3.277692
H      -0.074183   -2.780245   -1.557127
