19

C       0.011408    1.534255    0.084612
C       1.511367    1.938480    0.122772
C       2.070880    1.663458   -1.195814
C       2.138462    1.239345   -2.321137
C       1.759475    0.544476   -3.548161
C       0.293476    0.116640   -3.448757
C      -0.363668   -0.320870   -2.370282
C       0.194970   -0.667367   -1.006330
O      -0.248583    0.144005    0.087391
H      -0.480893    1.904546    0.990394
H      -0.451823    2.022040   -0.784253
H       1.580764    3.000706    0.389156
H       2.024985    1.377592    0.912579
H       1.881081    1.187394   -4.427715
H       2.407023   -0.324693   -3.731552
H      -0.265965    0.220094   -4.376422
H      -1.428421   -0.518948   -2.482875
H      -0.180525   -1.663290   -0.741741
H       1.284936   -0.728686   -1.028754
