16

C       0.119523    1.507148    0.102439
C       0.139827   -0.013415   -0.043198
C       0.833823   -0.491499   -1.299430
O       1.353387    0.254733   -2.098511
C       0.889434   -2.008039   -1.596340
O       1.408748   -2.240225   -2.858273
C       1.693285   -2.719426   -0.491718
O       2.780331   -3.193870   -0.656183
H       1.134653    1.910441    0.121803
H      -0.402002    1.972649   -0.737440
H      -0.386879    1.794729    1.027275
H       0.638435   -0.485655    0.815657
H      -0.876628   -0.429650   -0.042107
H      -0.141299   -2.396713   -1.515269
H       1.762190   -1.386198   -3.156693
H       1.168813   -2.768424    0.491301
