18

O      -0.248751    1.243850   -0.174357
C       0.012178   -0.140725    0.006054
C       0.763785   -0.366230    1.339472
C       2.043177    0.340823    1.348237
N       3.038274    0.927410    1.302787
C      -1.352428   -0.841077   -0.043274
C      -1.551963   -0.997038   -1.550941
O      -0.262598   -1.334947   -2.055555
C       0.732656   -0.753391   -1.224787
H       0.589995    1.699067   -0.316101
H       0.149443    0.013018    2.162533
H       0.938199   -1.433012    1.513083
H      -1.296119   -1.822503    0.438082
H      -2.121403   -0.241124    0.447029
H      -2.241818   -1.799230   -1.825733
H      -1.910077   -0.055072   -1.989561
H       1.281718    0.029389   -1.765730
H       1.450343   -1.533230   -0.939873
