15

O      -0.199152   -0.043456   -0.069210
C      -0.100852    1.159110   -0.058580
C       1.179653    1.843606    0.031973
C       2.219005    2.447473    0.101790
C      -1.321161    2.104840   -0.111243
O      -2.488483    1.409349   -0.481951
C      -3.374109    1.301278    0.633430
C      -2.771375    2.184323    1.689438
C      -1.607213    2.662953    1.266809
H       3.148235    2.960454    0.163989
H      -1.103118    2.890303   -0.851658
H      -4.377350    1.625478    0.323102
H      -3.449694    0.254037    0.962847
H      -3.241878    2.373740    2.645608
H      -0.923670    3.312485    1.795732
