21

O       0.103384    1.397094   -0.206905
C       0.042090   -0.004861   -0.019034
C       0.711172   -0.538732    1.289153
C      -0.406271   -1.328612    2.019429
C      -1.291011   -1.793971    0.843737
C      -1.434718   -0.468220    0.082970
O      -2.269620    0.424015    0.804990
C      -1.783327    0.789492    2.093927
C      -1.267806   -0.408370    2.905955
H       1.028445    1.640481   -0.309290
H       0.483780   -0.518207   -0.886569
H       1.553909   -1.196004    1.052907
H       1.099859    0.291256    1.888113
H      -0.006403   -2.156112    2.611842
H      -0.782468   -2.545957    0.228563
H      -2.259884   -2.194699    1.152315
H      -1.900730   -0.560028   -0.900754
H      -0.987645    1.536515    1.979131
H      -2.623909    1.272595    2.600856
H      -2.109436   -0.985707    3.306544
H      -0.692545   -0.035571    3.762172
