22

C       2.575973    1.690737    2.201062
C       2.077099    0.247905    2.218499
N       0.615335    0.227524    2.209028
C      -0.061545    0.099295    0.928608
C      -0.108204   -1.015360    1.923625
C       0.595327   -2.297637    1.626523
O       0.850712   -3.178044    2.734451
C      -0.042680   -3.625174    1.711578
C      -1.477694   -3.880239    2.098342
H       3.669060    1.721765    2.245465
H       2.259561    2.202574    1.286095
H       2.174330    2.245602    3.053327
H       2.520292   -0.300214    1.370757
H       2.408468   -0.256406    3.133206
H      -0.929795    0.732892    0.766911
H       0.553625   -0.059655    0.041625
H      -1.001483   -1.125037    2.532492
H       1.438528   -2.211765    0.940586
H       0.386768   -4.399291    1.070526
H      -1.865627   -3.106278    2.762684
H      -2.111468   -3.929399    1.206255
H      -1.557866   -4.840572    2.618326
