15

C       0.217961    1.394035   -0.090045
C       0.066791   -0.089119   -0.082169
N       0.284245   -0.915214   -1.091841
C       0.039160   -2.148736   -0.557422
C       0.158118   -3.381948   -1.403357
O       1.219572   -3.269026   -2.329120
N      -0.317232   -2.139828    0.714276
N      -0.300955   -0.810573    0.998039
H       1.253041    1.684555    0.120656
H      -0.043071    1.783094   -1.075812
H      -0.425101    1.867056    0.657274
H       0.347586   -4.250088   -0.765670
H      -0.801542   -3.557867   -1.918917
H       1.227079   -2.347276   -2.616564
H      -0.529604   -0.495064    1.926569
