25

C      -0.230280    1.253489   -0.083108
O      -0.306640   -0.059342    0.413823
C       0.699338   -0.530825    1.288615
C       1.954645    0.269820    1.518362
C       0.893461    0.177942    2.602981
C       0.726795   -2.068170    1.180035
C       1.106044   -2.449510   -0.265211
C       1.737461   -2.717233    2.142648
C      -0.680505   -2.608623    1.509529
H       0.640748    1.404117   -0.736064
H      -1.137161    1.409191   -0.673257
H      -0.207609    2.013915    0.711843
H       2.889685   -0.258213    1.662298
H       2.070046    1.222117    1.015606
H       0.292573    1.063532    2.781765
H       1.106219   -0.396395    3.496304
H       2.114794   -2.100025   -0.511187
H       1.087204   -3.536953   -0.393874
H       0.408712   -2.005803   -0.978604
H       1.505309   -2.512560    3.192021
H       1.709075   -3.804052    2.013539
H       2.765526   -2.397601    1.947740
H      -1.429530   -2.185021    0.838282
H      -0.702763   -3.699266    1.411357
H      -0.965136   -2.356875    2.536896
