17

C       0.296790    1.525916    0.309364
C       0.033579    0.087244    0.041793
C      -1.098014   -0.643124   -0.187710
C      -0.667266   -2.002773   -0.381347
C       0.680723   -1.990836   -0.258789
O       1.126107   -0.729064   -0.005151
C      -2.487667   -0.153436   -0.235827
C      -3.462418   -0.629624   -1.234461
O      -3.515687   -1.094444    0.111956
H       0.898698    1.654236    1.215533
H       0.842227    1.998839   -0.515926
H      -0.642369    2.066978    0.443819
H      -1.299924   -2.858384   -0.555133
H       1.440725   -2.752671   -0.310355
H      -2.650087    0.843903    0.173101
H      -4.282314    0.019071   -1.541917
H      -3.145762   -1.364594   -1.973090
