17

O      -0.191505    0.071093    0.059548
C      -0.091666    1.251576    0.185899
O       0.981227    1.935574   -0.281036
C       1.049183    3.327550   -0.012267
C       1.293631    3.584256    1.475031
O       1.201525    2.741480    2.325326
C       2.154060    3.945129   -0.848924
C       3.443736    3.202441   -1.092590
C       2.471694    3.425429   -2.225108
H      -0.851934    1.903745    0.651145
H       0.089947    3.812421   -0.265250
H       1.554335    4.639048    1.714274
H       2.225993    5.019357   -0.704561
H       4.366758    3.770410   -1.077773
H       3.520844    2.194886   -0.701672
H       1.915907    2.564033   -2.575135
H       2.722169    4.150323   -2.991277
