15

C       0.010382    1.424890   -0.028923
O       0.008904    0.005930   -0.010505
C       0.594902   -0.632373   -1.036080
C       0.702351   -2.001289   -1.208445
C       1.391899   -2.207777   -2.422181
C       1.691180   -0.970886   -2.965814
N       1.188857   -0.006145   -2.091708
C       2.358960   -0.609436   -4.148362
N       2.907616   -0.288936   -5.120345
H       1.032838    1.824900   -0.017324
H      -0.528858    1.815058   -0.902177
H      -0.505236    1.742083    0.877478
H       0.321976   -2.744569   -0.527794
H       1.650656   -3.155855   -2.866367
H       1.263846    0.984817   -2.238835
