17

C       0.100883    1.367135   -0.224753
N      -0.136420   -0.061455   -0.297565
C      -1.240870   -0.642411    0.229544
O      -2.133520   -0.058777    0.818960
C      -1.272415   -2.162757    0.062915
C      -2.622613   -2.801291   -0.307360
O      -2.026344   -3.325432   -1.547830
C      -0.821456   -2.740259   -1.261181
N       0.251443   -2.671486   -1.911688
H       1.085408    1.577634    0.205600
H       0.046057    1.833143   -1.215202
H      -0.671064    1.799972    0.412441
H       0.476264   -0.642655   -0.856565
H      -0.778906   -2.619235    0.924847
H      -2.974142   -3.616690    0.326081
H      -3.425333   -2.094962   -0.521457
H       0.192258   -3.150120   -2.810966
