14

N       0.046923    1.372236   -0.182462
C      -0.023918   -0.011069   -0.064071
N      -1.093036   -0.745986   -0.172549
C      -0.635893   -2.063616   -0.104638
C      -1.464395   -3.203920   -0.195370
N      -2.089655   -4.178897   -0.264356
C       0.730550   -2.094850    0.076127
N       1.627856   -3.128874    0.306465
N       1.116079   -0.772965    0.094719
H      -0.885623    1.748351   -0.304111
H       0.498413    1.827955    0.602772
H       1.153627   -4.023928    0.331450
H       2.388106   -3.171901   -0.364121
H       2.058171   -0.435268    0.202129
