19

C       0.002034    1.487424   -0.030719
C       0.081520   -0.018109    0.030696
C       0.429507   -0.736924   -1.267775
N       1.639771   -1.589006   -1.145151
C       0.290347   -2.148778   -0.869526
C      -0.112798   -1.975961    0.577809
C       0.691927   -0.819610    1.224889
C      -0.595293   -0.508190    1.997099
N      -1.154926   -0.813046    0.607369
H       0.967730    1.896515   -0.346933
H      -0.749763    1.796668   -0.765220
H      -0.257764    1.945507    0.926110
H       0.130336   -0.341928   -2.231568
H       1.917718   -1.880995   -2.081488
H      -0.128813   -2.920156   -1.503240
H      -0.395407   -2.847247    1.169573
H       1.730700   -0.830052    1.565526
H      -0.915725   -1.226784    2.757132
H      -0.776587    0.510956    2.343596
