19

O      -0.144820    1.325535   -0.473449
C      -0.399231   -0.041097   -0.754817
C      -1.319596   -0.576456    0.333624
C      -1.671214   -2.047353    0.124873
C      -2.545122   -2.614686    1.228784
O      -2.842072   -1.999956    2.227975
C      -3.037378   -4.030190    1.065427
C      -3.796815   -4.447814   -0.131309
O      -2.443963   -4.839195    0.047804
H       0.449895    1.667144   -1.147310
H      -0.875688   -0.163038   -1.742508
H       0.535389   -0.626458   -0.774203
H      -0.840125   -0.443312    1.308027
H      -2.231901    0.028507    0.358940
H      -2.165654   -2.209460   -0.842429
H      -0.770752   -2.676029    0.076920
H      -3.250032   -4.531195    2.008526
H      -4.537463   -5.238752   -0.027122
H      -3.981482   -3.735209   -0.933333
