20

C      -0.228213    1.285808    0.391801
O      -0.477760   -0.005035    0.906588
C      -1.340309   -0.765919    0.118216
C      -0.874280   -1.348931   -1.246769
C      -1.628770   -2.654272   -0.862378
C      -1.579074   -2.216139    0.618812
O      -0.421116   -2.798939    1.204041
C      -0.141743   -2.445510    2.477477
N       0.882247   -2.918101    3.043921
H       0.441838    1.789139    1.092011
H       0.254430    1.245114   -0.594993
H      -1.156845    1.870600    0.300806
H      -2.312475   -0.258630   -0.001623
H      -1.174188   -0.829280   -2.158416
H       0.206858   -1.504332   -1.246812
H      -2.651955   -2.680326   -1.243705
H      -1.136259   -3.603209   -1.074700
H      -2.454188   -2.394381    1.253068
H      -0.875095   -1.758132    2.914599
H       0.938553   -2.566919    3.997674
