23

C      -1.645877    0.741773    0.129960
C      -1.240386   -0.684059   -0.253896
C       0.161577   -0.752152   -0.875484
C       0.637869   -2.164015   -1.288167
C       1.480818   -2.127600   -2.572414
C       1.885160   -3.503434   -3.058619
O       1.790998   -3.869735   -4.203370
O       1.473342   -2.779598   -0.313609
C       0.829021   -3.230971    0.856035
H      -0.957045    1.162786    0.870644
H      -1.636124    1.404230   -0.742730
H      -2.652727    0.768673    0.557682
H      -1.296777   -1.328997    0.630474
H      -1.966921   -1.090888   -0.969548
H       0.176082   -0.100573   -1.757969
H       0.909511   -0.343429   -0.184184
H      -0.244755   -2.805715   -1.457879
H       0.950103   -1.616603   -3.379586
H       2.398995   -1.564665   -2.351564
H       2.287671   -4.171304   -2.268546
H      -0.045212   -3.858471    0.624059
H       1.555962   -3.831868    1.408799
H       0.501479   -2.404437    1.501765
