18

C       0.001190    1.453587    0.004883
N       0.030379    0.008949   -0.161966
C      -1.261797   -0.678894   -0.150720
C      -1.249135   -1.997059   -0.927928
C      -0.027628   -2.836363   -0.593014
O       1.105562   -2.618284   -1.432477
C       1.169351   -2.155218   -0.075436
C       1.207123   -0.651495    0.081736
O       2.250778   -0.093771    0.374253
H       1.026157    1.820426   -0.007902
H      -0.569976    1.913211   -0.808557
H      -0.462951    1.738963    0.959084
H      -1.582739   -0.858181    0.887816
H      -1.998929   -0.000169   -0.590525
H      -2.166615   -2.548927   -0.701671
H      -1.238655   -1.800953   -2.004819
H      -0.188797   -3.880271   -0.327166
H       1.894144   -2.669279    0.551186
