17

C       0.278600    1.399901    0.117082
O       0.292714   -0.009301    0.150855
C       0.369549   -0.568808   -1.144938
C       0.386002   -2.020503   -1.069666
C       0.403639   -3.230154   -1.047248
C       0.423294   -4.588312   -1.014345
C       0.444917   -5.797835   -0.986431
C       0.427912   -7.251546   -0.948453
O       1.756435   -7.752424   -1.013506
H       1.192505    1.807704   -0.343434
H      -0.589078    1.787647   -0.440152
H       0.218588    1.745282    1.151208
H      -0.487728   -0.240573   -1.759871
H       1.278485   -0.217511   -1.665642
H      -0.078899   -7.574304   -0.023724
H      -0.182392   -7.620932   -1.789513
H       1.702500   -8.713120   -0.978511
