13

C      -0.012747    1.483324    0.017516
C       0.003818   -0.017724   -0.010639
N      -0.100564   -0.624942   -1.195006
C      -0.082141   -1.963434   -1.182164
C       0.037392   -2.708005   -0.020606
C       0.137824   -1.951214    1.142444
F       0.255982   -2.572133    2.306968
N       0.124126   -0.641928    1.175328
H       0.908556    1.861902    0.471361
H      -0.113805    1.879421   -0.992593
H      -0.841242    1.839553    0.637803
H      -0.167297   -2.456310   -2.147603
H       0.052649   -3.789251   -0.005545
