21

C       0.031942    1.577108   -0.009872
C       0.015922    0.047149    0.026465
C       0.664524   -0.627454   -1.202368
C       1.237699   -1.955247   -0.684145
O       1.400819   -2.956085   -1.338277
C       1.476957   -1.807731    0.780788
C       2.223006   -0.541668    1.199683
C       0.729524   -0.562332    1.249264
C       0.013693   -0.525042    2.578344
H       1.058057    1.959340   -0.046779
H      -0.496677    1.953641   -0.891523
H      -0.452440    2.004858    0.873887
H      -1.029785   -0.285377    0.077838
H      -0.029409   -0.811093   -2.024814
H       1.484393   -0.021197   -1.609339
H       1.582232   -2.702276    1.382397
H       2.757860   -0.610133    2.141007
H       2.742029    0.033715    0.440205
H      -0.143347    0.505878    2.915613
H      -0.968430   -1.006636    2.510965
H       0.587986   -1.040400    3.354284
