18

C      -0.035529    1.635682    0.190103
C      -0.011693    0.105255    0.019570
C      -1.373934   -0.507438   -0.076983
C      -2.187131   -0.793937   -1.163795
C      -1.895911   -0.574556   -2.617382
C      -3.361493   -1.331939   -0.586488
N      -3.300952   -1.382311    0.740299
N      -2.087786   -0.871435    1.023344
H       0.980968    2.035932    0.256405
H      -0.537201    2.114061   -0.656024
H      -0.573817    1.921799    1.099009
H       0.552662   -0.150156   -0.883803
H       0.535573   -0.346909    0.856569
H      -2.380506   -1.337376   -3.234712
H      -2.253337    0.400365   -2.971579
H      -0.821906   -0.618549   -2.826152
H      -4.245136   -1.691529   -1.095472
H      -1.791907   -0.824405    1.983949
