10

N      -0.020967    1.329390    0.008042
C      -0.032609   -0.012694    0.001436
N      -1.210750   -0.650997    0.004768
C      -1.070788   -1.966418   -0.003522
N       0.080514   -2.647640   -0.013290
N       1.201952   -1.934864   -0.016147
N       1.179092   -0.629208   -0.009171
H       0.859437    1.814198    0.005332
H      -0.889351    1.834794    0.015764
H      -1.977001   -2.567584   -0.000284
