21

C      -0.020392    1.488652    0.043812
C      -0.061404   -0.001570   -0.018031
C      -0.058921   -0.809946   -1.084987
C       0.024569   -2.245170   -0.589792
C      -0.776184   -2.131873    0.729249
C       0.024725   -0.903668    1.215462
C       1.474703   -1.487949    1.213020
C       1.465609   -2.438917   -0.029243
O       1.614807   -3.811572    0.317371
H       0.891074    1.840657    0.545724
H      -0.049126    1.935095   -0.954342
H      -0.863447    1.888548    0.621779
H      -0.014043   -0.511451   -2.125785
H      -0.261814   -3.026920   -1.293031
H      -1.833615   -1.912919    0.563343
H      -0.666842   -3.010064    1.371445
H      -0.275359   -0.446724    2.160343
H       2.237539   -0.707191    1.151057
H       1.661743   -2.078586    2.115724
H       2.221817   -2.152785   -0.771658
H       2.474265   -3.921537    0.735733
