16

C       0.032272    1.428958    0.008666
O      -0.010345    0.012630    0.004509
C      -1.199773   -0.631157    0.011976
C      -1.240415   -1.988999    0.009140
C      -2.498174   -2.724855    0.016887
O      -2.570691   -3.950298    0.014174
C      -3.689546   -1.858981    0.027540
C      -3.585926   -0.516701    0.029913
N      -2.355849    0.109332    0.022294
H       1.089474    1.695554    0.001630
H      -0.441925    1.856263   -0.885167
H      -0.428594    1.850580    0.912108
H      -0.308344   -2.538460    0.000905
H      -4.662354   -2.334386    0.033558
H      -4.435955    0.154790    0.037725
H      -2.318096    1.112732    0.024268
