14

O       0.021684    0.052052    0.314264
C      -0.036487    1.229300    0.053872
C      -1.249925    2.068917   -0.108279
C      -0.921151    3.325185   -0.441348
C       0.564059    3.543880   -0.523546
C       1.242056    4.027263    0.788079
O       1.648387    2.685478    1.117223
C       1.163642    2.173859   -0.152803
H      -2.248867    1.674870    0.028941
H      -1.629446    4.129560   -0.612248
H       0.888129    4.041419   -1.438748
H       2.107096    4.682205    0.627862
H       0.586243    4.464224    1.549225
H       1.960590    1.734207   -0.758764
