16

C      -0.002970    1.520197   -0.035217
C      -0.003852    0.027777    0.047835
N      -0.003209   -0.684647   -1.063553
O      -0.004303   -2.044111   -0.673592
C      -0.005380   -2.062506    0.654189
C      -0.005195   -0.825664    1.186927
C      -0.006517   -0.945513    2.676246
O      -0.007509   -2.374025    2.908226
C      -0.006828   -3.132622    1.691237
H       0.880545    1.937940    0.458587
H      -0.003910    1.837427   -1.079431
H      -0.884746    1.939124    0.460656
H       0.880496   -0.509933    3.156351
H      -0.893860   -0.508958    3.154853
H      -0.895890   -3.777413    1.648237
H       0.881656   -3.778314    1.649784
