18

C      -0.064111    1.526952    0.074871
C       0.070879    0.020432   -0.045415
O       1.139998   -0.518385   -0.216814
C      -1.224788   -0.778035    0.054289
C      -0.999522   -2.287222    0.121400
C      -2.314243   -3.066073   -0.051959
O      -2.960877   -2.793879   -1.284196
C      -2.085951   -4.516661    0.115096
N      -1.890606   -5.650793    0.218613
H       0.892354    2.004068   -0.141048
H      -0.835314    1.906168   -0.604157
H      -0.378790    1.791121    1.091375
H      -1.797651   -0.419404    0.919940
H      -1.839973   -0.530129   -0.821001
H      -0.291355   -2.589780   -0.656975
H      -0.538304   -2.566834    1.074197
H      -3.030453   -2.754594    0.717614
H      -2.404854   -3.132467   -1.996143
