16

C       0.018239    1.547288    0.020178
C      -0.024571    0.053753    0.016432
C      -1.087288   -0.789214    0.043748
N      -2.421330   -0.568255    0.115268
C      -0.606155   -2.205495    0.020099
N      -1.408732   -3.193648   -0.008293
N       0.770216   -2.121935    0.022966
C       1.195606   -0.771655   -0.010113
O       2.355380   -0.428641   -0.052422
H       1.058290    1.877393   -0.039840
H      -0.521908    1.979689   -0.831730
H      -0.419487    1.971036    0.932492
H      -2.793301    0.336351   -0.117378
H      -3.009275   -1.372778   -0.046089
H      -0.924565   -4.091354   -0.029301
H       1.409344   -2.894822   -0.055012
