20

C       0.053044    1.496999   -0.226474
C       0.052064   -0.013383    0.082760
C       0.737942   -0.279144    1.355380
N       1.289590   -0.486957    2.349288
C      -1.363328   -0.596801    0.102982
O      -2.211178    0.013014    1.037625
C      -1.978993   -1.091746   -1.185810
C      -1.611727   -2.065829   -0.078297
C      -0.516227   -3.094657   -0.254005
H       1.073259    1.883206   -0.280439
H      -0.439155    1.677457   -1.186693
H      -0.473975    2.051475    0.554115
H       0.623275   -0.525145   -0.698877
H      -2.505449    0.857194    0.678504
H      -3.028598   -0.873590   -1.349557
H      -1.369150   -1.093264   -2.084632
H      -2.457443   -2.406320    0.512061
H       0.282356   -2.741392   -0.913589
H      -0.063407   -3.362168    0.705938
H      -0.922283   -4.007531   -0.701921
