17

O      -0.033767    1.386282   -0.105510
C      -0.014293   -0.033612   -0.021850
C       0.745330   -0.493844    1.219685
O       0.116828    0.038986    2.379537
C      -1.191981   -0.490377    2.574528
C      -2.089426   -0.178033    1.369884
O      -3.161939    0.358949    1.482012
C      -1.470627   -0.554483    0.014268
O      -2.215177   -0.103411   -1.077444
H      -0.093786    1.716824    0.801110
H       0.469049   -0.395560   -0.935209
H       0.792015   -1.593409    1.268485
H       1.764186   -0.097936    1.214305
H      -1.144684   -1.581356    2.733651
H      -1.608875   -0.017893    3.465312
H      -1.451729   -1.652873   -0.039666
H      -2.157114    0.860678   -1.065741
