25

C       0.055865    1.573207    0.066826
C       0.015119    0.036943    0.022335
C       0.828789   -0.523271    1.200826
C      -1.431978   -0.514667   -0.009247
C      -2.225655   -0.048797   -1.243840
C      -3.694872   -0.491382   -1.182633
C      -3.832047   -1.934190   -0.778643
C      -2.831974   -2.631988   -0.244105
C      -1.472985   -2.055440    0.059101
H       1.090605    1.928388    0.113982
H      -0.406527    2.033969   -0.809578
H      -0.461855    1.951649    0.956864
H       0.507739   -0.286930   -0.907509
H       0.348507   -0.283779    2.157714
H       0.947983   -1.608346    1.148932
H       1.831470   -0.083683    1.218174
H      -1.950698   -0.131175    0.883869
H      -2.181171    1.038172   -1.352039
H      -1.758657   -0.474261   -2.142973
H      -4.251578    0.145145   -0.477914
H      -4.174091   -0.330025   -2.156979
H      -4.796763   -2.408746   -0.943389
H      -2.979682   -3.680075    0.007881
H      -0.731328   -2.477313   -0.638579
H      -1.159920   -2.397556    1.052355
