21

C       0.012570    1.453532    0.290308
C       0.011968   -0.038116   -0.071942
C      -1.418806   -0.592853   -0.071802
C       0.695783   -0.311264   -1.426266
C       2.170342    0.032616   -1.480565
C       3.196318   -0.932601   -0.938592
C       3.087791   -0.700282   -2.426333
H       1.026631    1.856538    0.366687
H      -0.524904    2.039256   -0.465835
H      -0.482731    1.622913    1.252225
H       0.584369   -0.572999    0.699091
H      -2.031234   -0.097098   -0.834918
H      -1.431845   -1.667440   -0.283475
H      -1.906498   -0.435418    0.896015
H       0.577911   -1.375700   -1.670835
H       0.160308    0.240435   -2.213106
H       2.400432    1.085118   -1.339822
H       4.060608   -0.537719   -0.415866
H       2.841019   -1.881767   -0.549418
H       2.660008   -1.492921   -3.031953
H       3.876750   -0.143578   -2.920139
