10

O      -0.087926   -0.001538    0.035138
C      -0.007053    1.192765    0.006717
C       1.324567    1.923383   -0.009299
N       2.431345    1.284135   -0.001615
C       3.609051    2.040630   -0.026172
O       4.706543    1.591115   -0.095887
O       3.455702    3.428758    0.048213
N       2.186394    4.046973    0.015421
N       1.182040    3.327709   -0.026453
H      -0.881246    1.871293   -0.010149
