17

C       0.022049    1.464887   -0.145620
C       0.023836   -0.023510   -0.037229
O       0.592813   -0.822284   -1.125931
C       0.139687   -1.814275   -0.166762
C       0.557678   -0.978279    1.083911
C      -0.835156   -1.141347    1.726056
O      -1.376509   -0.061140    2.459250
C      -1.156635   -1.059806    0.229023
O      -2.370175   -1.174702   -0.399690
H       1.041269    1.844950   -0.268678
H      -0.568714    1.782147   -1.010960
H      -0.412525    1.896156    0.759595
H       0.295544   -2.869877   -0.381370
H       1.544509   -0.953010    1.539677
H      -1.033453   -2.105395    2.213070
H      -1.044196   -0.102335    3.361079
H      -2.980999   -0.555902    0.017527
