17

C       0.005621    1.572359   -0.440349
C      -0.049742    0.092516   -0.140194
C      -1.399821   -0.455558    0.325060
C      -1.905676    0.180466    1.533667
C      -2.331217    0.704850    2.535213
C      -2.805115    1.342567    3.736297
O      -3.885796    1.139377    4.240625
C       0.885491   -0.837183   -0.788913
O       1.071579   -0.436088    0.572050
H       1.017143    1.862071   -0.732940
H      -0.682601    1.831538   -1.252199
H      -0.279722    2.152971    0.442009
H      -2.138986   -0.336156   -0.478726
H      -1.302965   -1.532414    0.505033
H      -2.084810    2.058203    4.182545
H       0.606436   -1.880220   -0.935520
H       1.619626   -0.452754   -1.495467
