23

C       0.208801    1.520157    0.278293
C      -0.004877    0.020174    0.004699
C       0.534744   -0.777725    1.208222
C      -1.516382   -0.236825   -0.155320
C       0.721189   -0.464439   -1.279740
C       0.850905    0.427865   -2.508885
C       2.071850    0.105866   -1.697233
C       0.544992   -1.867737   -1.571416
C       0.404160   -3.036518   -1.823271
H       1.261992    1.771018    0.435045
H      -0.181958    2.151794   -0.524861
H      -0.326040    1.796755    1.192556
H       0.018384   -0.481769    2.127470
H       0.390241   -1.851940    1.066372
H       1.605765   -0.597782    1.350010
H      -1.924484    0.333178   -0.996817
H      -1.719740   -1.295520   -0.336299
H      -2.054826    0.064950    0.749249
H       0.734491   -0.046725   -3.475756
H       0.450425    1.432620   -2.450850
H       2.500866    0.891860   -1.087771
H       2.794353   -0.589970   -2.106413
H       0.279538   -4.067284   -2.044593
