23

C      -0.363134    1.337817    0.045481
O       0.092635    0.013241   -0.086007
C       0.629060   -0.504318    1.109784
C       1.086945   -1.940030    0.832681
C       1.661793   -2.576542    2.011761
C       2.129139   -3.073166    3.005304
C       2.709483   -3.703705    4.192164
C       2.190629   -5.145191    4.364958
C       4.249947   -3.664961    4.146455
H       0.449229    2.023400    0.335030
H      -0.756171    1.647288   -0.926040
H      -1.164838    1.422282    0.796454
H       1.481287    0.103841    1.454420
H      -0.123981   -0.496894    1.914675
H       0.226360   -2.513026    0.466350
H       1.815053   -1.918696    0.012586
H       2.387595   -3.126424    5.070624
H       2.493096   -5.766985    3.516597
H       2.598065   -5.589331    5.279002
H       1.099415   -5.165605    4.426684
H       4.623982   -4.239127    3.293053
H       4.614652   -2.639008    4.049403
H       4.668920   -4.096950    5.061125
