17

C       0.150414    1.400036    0.179882
O      -0.116413    0.022055   -0.022747
C       0.556691   -0.547011   -1.113592
C       2.011705   -0.651503   -0.854333
N       3.143226   -0.753369   -0.641698
C      -0.041538   -1.974636   -1.341076
N       0.030561   -2.844932   -0.173001
C      -1.422984   -1.836848   -1.805194
C      -2.548935   -1.705041   -2.200600
H       1.211062    1.577703    0.402169
H      -0.134627    1.993436   -0.700319
H      -0.452813    1.712230    1.034021
H       0.416532    0.052934   -2.026239
H       0.551209   -2.437426   -2.140264
H       1.003463   -2.993824    0.081236
H      -0.419082   -2.381645    0.611332
H      -3.548195   -1.604611   -2.546417
