16

O       0.196307    1.380001   -0.227877
C       0.041966   -0.020103   -0.047887
C       0.627970   -0.528182    1.254594
C      -0.219830   -1.289221    1.955975
C      -1.523041   -1.399220    1.248579
O      -2.500637   -2.016779    1.595725
C      -1.397674   -0.537133    0.008494
C      -2.557990    0.270261   -0.465220
N      -2.162415   -0.940019   -1.185525
H      -0.246427    1.818786    0.507982
H       0.578385   -0.461669   -0.897946
H       1.639682   -0.261924    1.541086
H      -0.033836   -1.771352    2.907601
H      -3.494642    0.184470    0.078345
H      -2.338039    1.240998   -0.900541
H      -1.628714   -0.680300   -2.013869
