15

N       0.159209    1.440725   -0.167021
C      -0.004864    0.004059   -0.005024
C       0.596869   -0.493123    1.335079
O       1.670607   -0.241640    1.817549
N      -0.373443   -1.315699    1.895481
C      -1.547724   -1.318608    1.146040
C      -1.424779   -0.575390    0.028880
C      -2.380056   -0.342780   -0.974360
C      -3.149759   -0.092226   -1.869594
H      -0.241369    1.721145   -1.057779
H      -0.367133    1.932758    0.549856
H       0.565817   -0.486257   -0.805623
H      -0.261841   -1.735226    2.803895
H      -2.404191   -1.880479    1.490371
H      -3.841359    0.109059   -2.649515
