17

O      -0.478775    0.313528    0.422589
C      -0.157807    1.389029    0.032773
O      -0.953738    2.312244   -0.622708
C       0.163909    3.248865   -0.765723
C       0.279934    4.312170    0.363412
C      -0.790802    4.265801    1.486770
C       0.102116    3.270250    2.297402
C       1.180930    3.324077    1.179041
C       1.082366    2.278538    0.007869
H       0.289632    3.545254   -1.806008
H       0.631734    5.288406    0.028650
H      -0.927560    5.229065    1.981988
H      -1.766385    3.886909    1.178517
H       0.453860    3.676223    3.248376
H      -0.329842    2.285266    2.488794
H       2.201889    3.565086    1.472695
H       2.004381    1.843044   -0.371803
