20

C      -0.704143    0.000856    0.594102
C       0.450197    0.592730   -0.216029
N       0.918904   -0.369381   -1.209473
C       2.133997   -0.654019   -1.276324
O       3.225815   -0.192987   -0.541194
C       4.144781   -1.048248   -1.291674
C       2.966347   -1.562824   -2.111852
C       2.617256   -2.944444   -2.586888
C       2.828203   -1.835867   -3.582634
H      -1.511074   -0.323839   -0.069146
H      -0.370035   -0.868558    1.168939
H      -1.103753    0.741232    1.294561
H       0.092408    1.479669   -0.755152
H       1.252808    0.925382    0.455187
H       4.888976   -0.449080   -1.824206
H       4.635018   -1.769974   -0.631895
H       3.380218   -3.711410   -2.503344
H       1.603954   -3.281309   -2.398324
H       1.959326   -1.414299   -4.075702
H       3.735121   -1.846550   -4.178213
