15

C       0.117472    1.432856   -0.321960
C       1.456836    1.999925    0.266238
C       2.149763    0.737889    0.673780
N       3.361489    0.358432    1.063069
N       3.180174   -0.949322    1.284591
N       1.955967   -1.445647    1.067464
C       1.290747   -0.364713    0.676466
C      -0.103397   -0.002733    0.271116
H      -0.730043    2.093615   -0.126474
H       0.218849    1.351229   -1.408349
H       2.007122    2.596668   -0.466124
H       1.271596    2.646746    1.132547
H       3.942140   -1.542259    1.570104
H      -0.773830    0.021309    1.138943
H      -0.549152   -0.684475   -0.458131
