19

C       0.034725    1.524840   -0.042907
C       0.014210    0.025437    0.027749
C      -1.254728   -0.824328   -0.153373
C      -0.787117   -1.737800    1.049794
C      -0.766303   -3.224642    0.826803
O       0.188446   -3.871761    0.458503
C       0.519669   -0.946423    1.132241
C       1.210939   -0.846165   -0.198416
O       1.223884   -1.854919   -1.156471
H       1.012120    1.919841    0.252348
H      -0.167137    1.871626   -1.063774
H      -0.719679    1.972744    0.614407
H      -2.181107   -0.293188    0.069905
H      -1.335851   -1.319813   -1.123566
H      -1.435155   -1.540212    1.909938
H      -1.737006   -3.735837    1.013597
H       1.035848   -0.731988    2.061707
H       2.152088   -0.296961   -0.132265
H       1.225732   -2.702408   -0.685938
