18

C       0.094664    1.582344   -0.155297
C       0.097098    0.087543   -0.012666
N      -1.182680   -0.521900   -0.542666
H      -1.384605   -0.196640   -1.493418
H      -1.105471   -1.541905   -0.560482
H      -1.980499   -0.281076    0.055952
C       1.334023   -0.788972   -0.180743
O       2.541968   -0.201773   -0.386734
C       0.657631   -0.665692    1.176067
C       1.360398    0.154466    2.305173
O       2.359128    0.826692    1.895333
O       0.864123    0.064402    3.420528
H       1.022628    1.953455    0.282925
H       0.053109    1.891584   -1.207405
H      -0.736985    2.046483    0.389517
H       1.189631   -1.718105   -0.741846
H       2.710086    0.287569    0.502451
H       0.073119   -1.505270    1.546124
