17

O       0.022269    1.348667    0.162878
C      -0.043716   -0.048494   -0.084123
C      -1.453885   -0.545254   -0.074651
C      -2.218625   -0.936361    1.201785
C      -2.050746   -1.927244    0.072457
C      -3.369705   -1.353263   -0.534282
C      -3.638047   -0.501449    0.750262
O      -3.505399    0.745956    0.032310
C      -2.668448   -0.001279   -0.881395
H      -0.598676    1.544635    0.873045
H       0.416660   -0.196217   -1.068130
H       0.557456   -0.622939    0.640823
H      -1.762753   -0.926782    2.183260
H      -1.593606   -2.905667    0.050198
H      -4.123724   -1.854247   -1.135302
H      -4.494559   -0.549568    1.420451
H      -2.537702    0.460946   -1.858194
