18

C      -0.724184    0.923852    0.642592
C       0.235073   -0.124176    0.144647
O       1.504514    0.321616   -0.347697
C       1.494051   -0.539967    0.794657
C       2.090689    0.018437    2.053689
N       1.267927    0.694273    3.044538
C       1.872546   -0.605159    3.406394
C       0.904001   -1.722838    3.587209
O       1.131088   -2.705757    4.246122
H      -0.227717    1.652802    1.280665
H      -1.174173    1.438409   -0.213306
H      -1.531914    0.458564    1.216954
H      -0.224876   -0.882297   -0.494602
H       1.851806   -1.548982    0.573119
H       3.102551    0.393642    1.898856
H       1.778304    1.452685    3.488351
H       2.724068   -0.633189    4.081191
H      -0.062284   -1.572890    3.058288
