17

C      -0.008241    1.459143    0.054814
C      -0.014635   -0.041120    0.007057
C      -1.243334   -0.938755   -0.213053
C      -0.349633   -2.116133    0.255508
O      -0.839720   -3.280702    0.784046
C       0.632470   -1.025365    0.924510
C       1.209331   -0.827459   -0.495572
C       0.733656   -2.204665   -0.843560
O       1.158796   -3.102274   -1.512158
H       0.971476    1.841967    0.357542
H      -0.247453    1.886443   -0.925048
H      -0.749018    1.827960    0.772761
H      -2.020592   -0.706309    0.525368
H      -1.686507   -1.008384   -1.213195
H      -1.610315   -3.081316    1.326220
H       1.158721   -0.970412    1.865469
H       2.133517   -0.337189   -0.768375
