22

C       0.073823    1.459622   -0.374010
C       0.003699   -0.020968   -0.041453
C       1.145308   -0.885133   -0.472128
N       0.951321   -0.557829    0.951902
C      -1.364506   -0.607752    0.010380
C      -1.864311   -1.379003    0.978123
C      -3.292756   -1.786227    0.713288
C      -3.495992   -1.400326   -0.774854
C      -2.389966   -0.360098   -1.082342
H       1.113813    1.795845   -0.441331
H      -0.409964    1.678177   -1.331460
H      -0.429590    2.055645    0.395620
H       0.963854   -1.925702   -0.725013
H       1.967800   -0.418830   -1.010028
H       1.604613    0.171693    1.227513
H      -1.316374   -1.655953    1.870408
H      -3.476720   -2.851139    0.897232
H      -3.981373   -1.241225    1.375755
H      -3.343723   -2.284968   -1.401481
H      -4.500919   -1.025676   -0.986194
H      -2.774309    0.668750   -1.028129
H      -1.974104   -0.476141   -2.090676
