19

C       0.083758    1.585073    0.001429
C       0.082935    0.053056   -0.030365
C       0.718083   -0.523659   -1.306307
C       0.745020   -2.057261   -1.309171
C       1.457024   -2.587944   -0.084802
O       2.582479   -1.831260    0.350867
C       1.407736   -1.834482    1.184685
C       0.656398   -0.529859    1.265714
O       0.463770   -0.015941    2.344703
H       1.104289    1.973900   -0.080712
H      -0.499582    1.988247   -0.831577
H      -0.340713    1.946525    0.939650
H      -0.967325   -0.285581   -0.004384
H       0.161476   -0.162762   -2.177416
H       1.741718   -0.148855   -1.403718
H      -0.274274   -2.466001   -1.326160
H       1.246109   -2.427676   -2.210922
H       1.590948   -3.667884   -0.017756
H       1.529757   -2.337682    2.141888
