23

C       0.029381    1.542376    0.121604
C      -0.114936    0.014059    0.031936
C      -1.576898   -0.358406   -0.109848
O      -2.182047   -1.107931    0.612336
C       0.661720   -0.557419   -1.161492
C       2.214721   -0.468489   -1.154289
C       2.260229   -1.887500   -1.790420
C       3.335062   -2.864545   -1.341282
C       0.796287   -2.098695   -1.312049
H       1.085137    1.823938    0.171642
H      -0.404516    2.031904   -0.758013
H      -0.470377    1.939980    1.009991
H       0.247638   -0.453826    0.954408
H      -2.080121    0.124896   -0.983573
H       0.270587   -0.122464   -2.090083
H       2.687528    0.354948   -1.695418
H       2.605914   -0.484154   -0.130237
H       2.276758   -1.794685   -2.882550
H       3.336289   -2.973454   -0.250676
H       3.174945   -3.858204   -1.774563
H       4.332683   -2.526761   -1.643995
H       0.764127   -2.594641   -0.335391
H       0.103420   -2.613064   -1.982647
