23

C      -0.307804    1.658470    1.278004
C      -0.069077    0.302656    0.635492
O       0.147888   -0.641294    1.684185
C       0.501295   -1.934563    1.289061
C      -0.639618   -2.789492    0.791923
O      -0.995656   -2.392840   -0.530668
C       1.885220   -2.153983    0.719733
C       1.567609   -2.590633    2.135151
C       2.173461   -1.868107    3.316782
H       0.556876    1.964339    1.874670
H      -0.484451    2.416707    0.508859
H      -1.180526    1.624785    1.936903
H      -0.923914   -0.002727    0.022224
H       0.809222    0.333929   -0.026115
H      -0.334419   -3.847067    0.810136
H      -1.488071   -2.669173    1.482104
H      -1.806323   -2.851898   -0.770475
H       2.016764   -2.900313   -0.055883
H       2.510084   -1.273966    0.609266
H       1.444912   -3.661628    2.278289
H       2.184877   -0.789753    3.146117
H       1.597431   -2.051980    4.230217
H       3.200581   -2.204928    3.493971
