21

C       0.021417    1.524707   -0.330330
C       0.015445    0.039216   -0.078654
O       1.290193   -0.633364   -0.137866
C       0.604928   -0.607323    1.096911
C       1.180995   -0.085058    2.418617
C       0.693265    1.213923    3.030693
O       0.631213   -1.242448    3.100711
C       0.189672   -1.862149    1.865463
C      -1.268125   -2.274523    1.904284
H       0.863484    2.005914    0.171163
H       0.103747    1.724403   -1.403760
H      -0.908152    1.981402    0.025560
H      -0.781095   -0.507422   -0.588379
H       2.280144   -0.121644    2.414558
H      -0.394022    1.303676    2.953420
H       0.963745    1.238217    4.091017
H       1.156206    2.078153    2.544731
H       0.829138   -2.719094    1.608334
H      -1.912593   -1.416007    2.114649
H      -1.567039   -2.715453    0.947164
H      -1.427216   -3.023965    2.685797
