14

O      -0.232069    1.398282    0.229526
C      -0.038798    0.076680    0.059786
C       0.142549   -0.597180   -1.129867
N       0.294345   -1.884587   -0.712755
N       0.204818   -2.004337    0.613275
N       0.009360   -0.798043    1.090484
C       0.192346   -0.195364   -2.542769
C       1.343155   -0.507090   -3.412576
O       0.141063   -1.278853   -3.481227
H      -0.344165    1.544427    1.177534
H       0.382131   -2.699960   -1.300056
H      -0.417950    0.669105   -2.798767
H       1.543870    0.119260   -4.280007
H       2.205661   -1.018207   -2.988985
