24

C      -0.020819    1.452506   -0.256062
C       0.155359   -0.032289   -0.021021
C       1.526033   -0.663589    0.061073
C       0.643535   -0.628038    1.287860
C       1.034829    0.269640    2.446555
C      -0.014629   -1.937448    1.690653
N       0.876755   -2.801058    2.466099
C       0.735488   -2.761469    3.918522
C       0.239118   -3.926968    3.139355
H       0.783957    2.040528    0.193249
H      -0.020009    1.672471   -1.329562
H      -0.969295    1.816863    0.155214
H      -0.596944   -0.633458   -0.528357
H       1.700167   -1.618963   -0.422442
H       2.383447    0.002684    0.042936
H       1.483500    1.205865    2.106309
H       0.165337    0.524350    3.065535
H       1.767845   -0.228253    3.088806
H      -0.953178   -1.728211    2.240844
H      -0.293826   -2.491227    0.786428
H       1.658206   -2.827202    4.488304
H      -0.013903   -2.093112    4.340608
H      -0.840893   -4.034036    3.043455
H       0.791345   -4.862495    3.125444
