19

C       0.013170    1.341248    0.192575
O       0.009303   -0.066469    0.153175
C      -1.273156   -0.605451   -0.083618
C      -1.155316   -2.099538   -0.114798
C      -0.164901   -2.783889   -1.038250
O      -0.561464   -4.151055   -1.089359
C      -1.940723   -4.264210   -0.764902
C      -2.263456   -3.041533    0.066622
O      -1.320517   -2.816932    1.118754
H       1.042394    1.659199    0.373293
H      -0.333659    1.777079   -0.758091
H      -0.626670    1.727773    1.001113
H      -1.982255   -0.310755    0.705662
H      -1.669976   -0.240836   -1.047915
H      -0.202473   -2.311126   -2.033349
H       0.863461   -2.742257   -0.670510
H      -2.578097   -4.273376   -1.665322
H      -2.083157   -5.207634   -0.227808
H      -3.291431   -2.744369    0.259119
