25

C       0.888833   -0.079887   -1.176441
C      -0.067116   -0.208073    0.016066
C       0.591307   -0.716939    1.294161
C       1.699778    0.139662    1.890059
C       1.236018    1.518275    2.351529
O       2.326846    2.166918    2.971148
C       2.008889    3.458587    3.425459
C      -0.284942   -1.475204    2.265687
C       0.735006   -2.214933    1.432600
H       1.382274   -1.034146   -1.389176
H       0.348752    0.227730   -2.077308
H       1.670813    0.663874   -0.993657
H      -0.548709    0.760577    0.203527
H      -0.878833   -0.896313   -0.249770
H       2.130507   -0.374042    2.756949
H       2.517981    0.268243    1.171716
H       0.873024    2.120108    1.501052
H       0.393345    1.421914    3.058043
H       2.906575    3.874882    3.889662
H       1.697678    4.119452    2.600032
H       1.198076    3.443550    4.171864
H      -0.088685   -1.363953    3.327240
H      -1.334554   -1.602921    2.021696
H       0.373087   -2.838290    0.621161
H       1.616220   -2.605651    1.930431
