16

C      -0.104090    1.118330   -0.175023
C      -0.269555   -0.383148   -0.274005
O       0.618834   -1.130482   -0.620021
C      -1.586157   -0.891162    0.078096
C      -2.677549   -1.317240    0.369343
C      -3.993234   -1.851926    0.703880
O      -4.001781   -3.253523    0.964572
C      -3.757713   -4.060322   -0.097203
N      -3.790213   -5.309416    0.056802
H       0.909088    1.393111   -0.471350
H      -0.834046    1.621967   -0.817953
H      -0.298203    1.450122    0.850743
H      -4.366042   -1.390422    1.622714
H      -4.703783   -1.601660   -0.097040
H      -3.544540   -3.515091   -1.025536
H      -3.588248   -5.776199   -0.824870
