18

C      -0.131985    1.515056   -0.083452
C       0.033579    0.017827   -0.021971
O      -1.100175   -0.635062   -0.493913
C       1.390408   -0.599585   -0.233278
C       0.766070   -0.622540    1.145132
C       1.215773   -0.149489    2.523209
O       0.625239   -1.371175    3.098771
C       0.223976   -1.799751    1.853192
N      -0.441885   -2.799464    1.474629
H       0.766146    2.030315    0.268019
H      -0.324319    1.823652   -1.115699
H      -0.982863    1.831001    0.527618
H      -1.134245   -1.528655   -0.112191
H       1.446799   -1.550519   -0.753540
H       2.240724    0.059855   -0.378051
H       2.293202   -0.119253    2.704136
H       0.727345    0.739383    2.929805
H      -0.727886   -3.402674    2.245044
