18

O      -0.041189    1.356217   -0.170632
C      -0.031892   -0.027888    0.142983
C      -1.422460   -0.578198    0.205976
C      -2.032796   -1.820230   -0.327861
C      -3.313375   -1.482032    0.475307
C      -3.597758   -0.327218   -0.533943
C      -3.479606    0.726430    0.578770
C      -2.547573   -0.320946    1.233116
N      -2.196268   -0.544688   -1.094590
H      -0.544143    1.430041   -0.991087
H       0.552363   -0.606205   -0.589774
H       0.466567   -0.122346    1.113586
H      -1.610384   -2.721611   -0.756814
H      -4.041199   -2.146964    0.931890
H      -4.368306   -0.321106   -1.303459
H      -3.065672    1.707314    0.332082
H      -4.422059    0.833103    1.124931
H      -2.304992   -0.339488    2.293865
