19

C       0.020496    1.511465   -0.030341
O       1.199838    0.711532   -0.116516
C      -0.076752    0.047744   -0.005016
C      -0.373311   -0.757923    1.284190
C      -0.505780   -2.200560    0.767384
C      -1.807422   -3.081362    0.740583
C      -1.607995   -3.262132   -0.813237
C      -0.732272   -2.036337   -0.712556
C      -0.568483   -0.790141   -1.149388
H      -0.102111    2.072315    0.897371
H      -0.243456    2.061602   -0.934168
H       0.412886   -0.607911    2.027951
H      -1.319932   -0.412987    1.715932
H       0.362158   -2.823367    1.011313
H      -1.811092   -3.989115    1.348180
H      -2.700771   -2.490197    0.957595
H      -1.049235   -4.177366   -1.034917
H      -2.484301   -3.214597   -1.463265
H      -0.814215   -0.378703   -2.120603
