18

C      -0.081499    1.506670    0.046336
C       0.018313   -0.009391   -0.027577
O      -1.230298   -0.578601   -0.321581
C       1.250381   -0.648691   -0.708206
N       2.091701   -0.067244    0.462404
C       0.839587   -0.750319    1.091342
C       0.073264   -1.697500    2.042938
O      -0.080777   -2.609506    0.891237
C       1.046679   -1.933402    0.228510
H       0.870315    1.960647    0.316417
H      -0.391457    1.909918   -0.926746
H      -0.839749    1.790458    0.784010
H      -1.742819    0.078278   -0.801857
H       1.622472   -0.545891   -1.732831
H       2.890437   -0.689580    0.619989
H       0.655210   -2.166231    2.844399
H      -0.894265   -1.343480    2.407816
H       1.952277   -2.542183    0.332504
