15

C      -0.067217    1.536349   -0.010254
C       1.442926    1.873789   -0.022379
O       2.171597    1.434430    1.119259
C       2.253833    0.634706   -0.090311
C       1.266811   -0.470489   -0.102844
C       0.000780    0.038908   -0.035154
N      -0.823474   -1.049589    0.070655
C      -0.003486   -2.157275    0.028967
N       1.270728   -1.840099   -0.068481
H      -0.548765    1.944609    0.885869
H      -0.569314    1.971265   -0.883633
H       1.765628    2.820291   -0.448701
H       3.237024    0.579242   -0.544831
H      -1.828002   -1.060928    0.129210
H      -0.404940   -3.159060    0.063848
