16

O      -0.062818    1.509236   -0.053567
C      -0.019027    0.110681   -0.011176
C      -1.336345   -0.714939    0.064152
C      -2.460797   -0.228290   -0.887761
C      -2.035878   -1.280004   -1.955585
C      -0.803993   -1.666227   -1.081690
C       0.328775   -0.653438   -1.293649
O       1.079056   -0.401400   -2.195813
H       0.462228    1.786173   -0.814349
H       0.650145   -0.243425    0.793284
H      -1.626573   -1.072065    1.050527
H      -3.471519   -0.364415   -0.500035
H      -2.344277    0.816652   -1.184810
H      -2.744946   -2.106689   -2.036182
H      -1.808436   -0.919530   -2.961559
H      -0.542546   -2.718649   -0.972308
