20

C      -0.031383    1.490294   -0.003131
C      -0.005709   -0.014050   -0.006997
C       0.617046   -0.964573   -1.073267
C       0.018538   -1.927102   -0.003898
C       0.030909   -3.431593    0.004894
C       0.630283   -0.960940    1.061432
C      -1.229738   -0.986282   -0.031079
O      -2.182192   -0.996732    0.997896
H       0.978444    1.909232    0.065988
H      -0.494398    1.876817   -0.917691
H      -0.611114    1.866502    0.847175
H       0.148687   -0.972126   -2.063051
H       1.707593   -0.950850   -1.147862
H       1.050903   -3.824655    0.076681
H      -0.540287   -3.819518    0.855713
H      -0.420953   -3.832696   -0.908965
H       1.722271   -0.946999    1.130840
H       0.201746   -0.964728    2.070715
H      -1.804200   -0.995062   -0.962945
H      -1.730974   -0.989460    1.848140
