20

C      -0.003046    1.533618    0.079134
C      -0.136972    0.013426   -0.059212
C       0.692053   -0.555100   -1.207212
C       2.261795   -0.556504   -1.094915
C       2.245459   -2.071481   -1.336987
O       3.131092   -2.733973   -2.170720
C       1.445543   -2.774806   -0.280038
C       0.728723   -2.077452   -1.421999
H       1.035827    1.826001    0.267525
H      -0.327705    2.044148   -0.834567
H      -0.610169    1.914455    0.906328
H       0.153244   -0.466614    0.883702
H      -1.191041   -0.248911   -0.220372
H       0.398872   -0.057631   -2.138325
H       2.739959   -0.011620   -1.911536
H       2.691771   -0.222500   -0.143415
H       3.877931   -3.033845   -1.640903
H       1.453552   -3.856827   -0.367870
H       1.392164   -2.404097    0.741140
H       0.083051   -2.633056   -2.091613
