25

C      -0.701613    2.321543    2.554486
C      -0.146666    1.453192    1.417813
C       0.545451    0.194538    1.908731
C      -0.177578   -1.114205    2.216198
C      -1.673605   -1.285209    2.081626
O      -2.350670   -1.030225    3.307766
C       0.781614   -1.028322    1.042861
C       0.261343   -1.079356   -0.384870
C       2.116779   -1.736531    1.201479
H       0.077678    2.569779    3.283062
H      -1.113152    3.260563    2.171360
H      -1.507932    1.810479    3.092637
H      -0.957362    1.212591    0.723382
H       0.574903    2.043709    0.837867
H       1.363598    0.418874    2.592209
H       0.202474   -1.660778    3.077370
H      -2.079856   -0.659331    1.274459
H      -1.914837   -2.324354    1.829600
H      -2.011320   -0.198795    3.654254
H      -0.703219   -0.585662   -0.514427
H       0.971714   -0.601352   -1.069967
H       0.144153   -2.119027   -0.712379
H       2.038187   -2.795256    0.926261
H       2.880632   -1.283803    0.557503
H       2.477504   -1.686368    2.233470
