16

C       0.074340    1.397589    0.056286
N      -0.080293   -0.039039    0.072970
C      -1.283935   -0.651400   -0.088431
O      -2.344604   -0.066305   -0.261387
C      -1.203586   -2.130716   -0.036080
C      -2.252775   -3.004458   -0.167428
N      -1.697568   -4.253147   -0.051114
C      -0.354496   -4.090157    0.143161
N      -0.023872   -2.822626    0.157407
H       0.737879    1.721169   -0.754361
H      -0.914945    1.830164   -0.100775
H       0.479701    1.769335    1.004763
H       0.716973   -0.642568    0.207214
H      -3.303708   -2.838611   -0.327469
H      -2.191191   -5.128946   -0.100195
H       0.316891   -4.926837    0.265396
