25

C      -0.028289    1.539272   -0.199286
C       0.013324    0.039408    0.001920
C       1.317363   -0.721645   -0.052919
C       0.561463   -0.612177    1.252697
C       1.125478    0.167610    2.423125
C       2.085449   -0.668330    3.284533
C       2.648189    0.096865    4.463542
C       1.876260    0.185608    5.757045
C       3.146643   -0.627586    5.687150
H       0.864452    2.030951    0.197130
H      -0.088052    1.784680   -1.265576
H      -0.899480    1.986828    0.292782
H      -0.838815   -0.476145   -0.435015
H       1.354087   -1.675610   -0.567975
H       2.226989   -0.134670   -0.147248
H       0.036486   -1.515945    1.557082
H       1.656063    1.057797    2.064359
H       0.306819    0.536290    3.055839
H       1.560333   -1.560735    3.652363
H       2.905452   -1.037428    2.654096
H       3.204381    0.990869    4.189128
H       1.889554    1.117579    6.311471
H       0.935779   -0.352927    5.820652
H       3.056623   -1.709091    5.706046
H       4.029345   -0.249272    6.191143
