20

C      -0.037289    1.332558   -0.220590
C       0.210875   -0.120164    0.094431
N       1.608995   -0.559676    0.173397
C       0.776943   -0.603696    1.400242
C       1.144446    0.353275    2.419564
C       1.410773    1.126738    3.300862
C       0.299215   -1.919036    1.970423
C       0.296396   -3.201650    1.181145
C       1.273918   -3.015551    2.316208
H       0.676350    1.968586    0.306765
H       0.067717    1.513205   -1.295724
H      -1.050155    1.625335    0.075791
H      -0.493155   -0.818915   -0.356652
H       1.717831   -1.495797   -0.209760
H       1.662168    1.815339    4.068967
H      -0.528874   -1.790407    2.661597
H      -0.542514   -3.874250    1.320598
H       0.687647   -3.206002    0.168452
H       2.315102   -2.855948    2.056817
H       1.122586   -3.574282    3.232596
