16

C      -0.096779    1.495576   -0.044476
C      -0.044645   -0.001097    0.023804
C       0.158371   -0.756142    1.303016
C      -0.694916   -1.903389    1.741816
O      -1.358161   -2.597811    1.010409
N       1.209562   -0.836853    0.250020
C       0.760321   -1.833032   -0.791833
C      -0.464031   -0.949874   -1.087324
O      -1.239492   -0.847486   -1.989208
H       0.573001    1.943158    0.694730
H       0.195301    1.846884   -1.038405
H      -1.114684    1.847287    0.151260
H       0.511282   -0.145882    2.132408
H      -0.674801   -2.084081    2.838020
H       1.472901   -1.819335   -1.621080
H       0.604255   -2.854194   -0.447607
