18

C      -0.205681    1.490929   -0.058380
C       0.042512   -0.011234   -0.082301
C       1.295084   -0.462576   -0.882872
N       2.027706   -0.614134    0.399455
C       0.783510   -0.591115    1.162053
C       0.692998   -0.040428    2.596924
O       0.085963   -1.298102    3.048412
C       0.215698   -1.869076    1.806862
O      -0.037813   -2.985497    1.481653
H       0.704805    2.037809    0.207572
H      -0.529732    1.837124   -1.045465
H      -0.988967    1.759966    0.657916
H      -0.871867   -0.551834   -0.334445
H       1.134446   -1.400378   -1.426499
H       1.738578    0.274958   -1.560555
H       2.590246   -1.452886    0.498556
H       1.656493    0.125100    3.083539
H       0.017757    0.799669    2.769783
