19

C      -0.136707    1.544741   -0.310410
C       0.056930    0.045102   -0.161610
C       1.421599   -0.539492   -0.583672
O       1.690393   -1.028537    0.746725
C       0.426884   -0.523102    1.250383
C       0.567632    0.409236    2.354833
C       0.667069    1.186336    3.271673
C       0.815934    2.077566    4.420961
O       0.375093    1.508677    5.645390
H       0.699526    2.097463    0.127643
H      -0.209633    1.816605   -1.368924
H      -1.053254    1.877409    0.186596
H      -0.790165   -0.492595   -0.594227
H       1.391756   -1.352050   -1.319484
H       2.165313    0.202669   -0.902122
H      -0.218716   -1.354989    1.563041
H       1.865347    2.407623    4.484612
H       0.211210    2.980078    4.277449
H       0.815485    0.657774    5.742278
