17

O      -0.108567    1.282752    0.059126
N       0.005313   -0.115727    0.036631
C      -1.134070   -0.677381   -0.022650
C      -2.512139   -0.050518   -0.033340
C      -3.416722   -1.259537    0.052004
C      -2.734852   -2.406330    0.067530
C      -1.270102   -2.170265   -0.026541
C      -0.301686   -3.035555   -0.767841
N      -0.310857   -3.031723    0.696557
H       0.810557    1.564584    0.119005
H      -2.634095    0.649489    0.802928
H      -2.669887    0.543985   -0.943324
H      -4.495785   -1.171554    0.091723
H      -3.151870   -3.403535    0.129818
H      -0.650870   -3.956468   -1.228111
H       0.501994   -2.524309   -1.290736
H       0.442055   -2.433780    1.035117
