19

O      -0.599563    0.971451    1.332574
C      -0.143283    0.114309    0.288155
C       0.897961   -0.910117    0.775026
C       0.097141   -2.056750    1.418367
O      -0.152290   -1.879451    2.807738
C      -1.501129   -1.485204    2.972795
O      -2.214250   -1.972289    1.859060
C      -1.316282   -2.013167    0.760101
C      -1.328660   -0.759024   -0.147061
H       0.170228    1.379165    1.741971
H       0.242088    0.719940   -0.544007
H       1.452131   -1.297831   -0.088760
H       1.630127   -0.486618    1.469566
H       0.603922   -3.019073    1.299408
H      -1.901224   -1.954780    3.877998
H      -1.573078   -0.391095    3.032371
H      -1.558736   -2.915060    0.192614
H      -2.276100   -0.220748   -0.077506
H      -1.188136   -1.064733   -1.189358
