19

C       0.094925    1.362030   -0.263981
C      -0.020112   -0.121202   -0.026286
O       0.932996   -0.833684    0.207968
C      -1.418726   -0.729139   -0.078302
N      -2.414323    0.065836   -0.239344
N      -1.392452   -2.082206    0.049300
C      -2.564900   -2.908606    0.202125
C      -2.196871   -4.370312   -0.005637
O      -1.196679   -4.692480    0.949656
H       1.139787    1.662470   -0.180786
H      -0.300612    1.612941   -1.252546
H      -0.525082    1.905320    0.453933
H      -3.305825   -0.431982   -0.232247
H      -0.505739   -2.474784    0.337487
H      -3.022605   -2.785863    1.196238
H      -3.319047   -2.627116   -0.543396
H      -3.095771   -4.991553    0.122892
H      -1.826575   -4.509147   -1.031919
H      -0.828673   -5.553542    0.732459
