25

C       0.100527    1.675704   -0.076645
C      -0.019034    0.150785    0.019232
C       0.656735   -0.554652   -1.164343
C       0.625849   -2.105168   -1.177355
C       1.426139   -2.672194    0.011745
C      -0.822072   -2.627159   -1.129901
C       1.283588   -2.544832   -2.524789
C       1.453422   -4.039828   -2.669244
O       0.699482   -4.756078   -3.280374
H       1.149707    1.991755   -0.083947
H      -0.363046    2.052473   -0.995187
H      -0.389359    2.167303    0.769509
H       0.424971   -0.183566    0.964236
H      -1.079102   -0.124224    0.063280
H       0.190304   -0.195785   -2.092309
H       1.706060   -0.230648   -1.211377
H       1.013208   -2.327596    0.963892
H       1.400170   -3.766453    0.031099
H       2.476284   -2.361305   -0.028845
H      -1.432792   -2.166838   -1.914210
H      -0.859341   -3.710005   -1.279145
H      -1.290146   -2.408346   -0.165868
H       0.666100   -2.194979   -3.358244
H       2.274459   -2.078215   -2.601171
H       2.344150   -4.469258   -2.156013
