25

C      -0.199152    1.530686    0.034937
C      -0.033697    0.016002   -0.030473
C       0.828068   -0.517171    1.118842
O      -1.346658   -0.531655   -0.012917
C      -1.453595   -1.876846   -0.431745
C      -2.922737   -2.221594   -0.555593
C      -3.754571   -1.566468   -1.692563
C      -4.463369   -2.931375   -1.908682
C      -3.304760   -3.614392   -1.130742
H       0.772811    2.030228   -0.017615
H      -0.820076    1.882180   -0.793188
H      -0.685723    1.818093    0.972602
H       0.448024   -0.251320   -0.987280
H       0.362490   -0.279709    2.081016
H       0.960396   -1.601213    1.059912
H       1.822754   -0.060561    1.093823
H      -0.950582   -2.013704   -1.405964
H      -0.966725   -2.562557    0.281716
H      -3.407877   -2.057673    0.412544
H      -4.371430   -0.702334   -1.437877
H      -3.118875   -1.299367   -2.543325
H      -5.407723   -2.990543   -1.359830
H      -4.642459   -3.255385   -2.936625
H      -2.531430   -3.991936   -1.808726
H      -3.558266   -4.406799   -0.422221
