13

O      -0.057053    0.142685   -0.692404
C      -0.025521    1.192531   -0.103823
C      -1.315736    1.887072    0.313736
O      -1.162674    2.895359    1.321381
C       0.018227    3.556583    1.342346
N       1.137020    3.224962    0.855533
C       1.266274    1.927871    0.216983
C      -0.104084    4.804606    2.066642
N      -0.202670    5.798494    2.646641
H      -1.755786    2.347381   -0.581690
H      -2.022605    1.152071    0.702251
H       1.871117    1.278084    0.864401
H       1.845881    2.032799   -0.707841
