16

C      -0.001373    1.492137    0.429201
C       0.056724    0.003886    0.170819
C       1.339649   -0.639061   -0.327761
O       2.481056    0.143786   -0.472652
C       0.849843   -0.934733    1.062766
O       1.692093   -0.398644    2.066483
C       1.109361   -0.025596    3.232045
O       1.737311    0.415610    4.143942
H       0.985230    1.889543    0.673175
H      -0.352109    2.013673   -0.466454
H      -0.688051    1.734382    1.247228
H      -0.860442   -0.435820   -0.213120
H       1.268264   -1.429119   -1.070938
H       2.948745    0.143712    0.371543
H       0.461540   -1.918596    1.308501
H       0.016055   -0.186365    3.227860
