20

C       0.387248    1.586967   -0.021156
C      -0.031524    0.112398   -0.026551
C       0.281526   -0.559359   -1.342039
C       0.659954   -1.831300   -1.431734
C       0.793961   -2.734573   -0.235353
O       1.936736   -3.588817   -0.333337
C       0.937719   -1.959238    1.061902
C       1.961473   -0.883765    1.144124
N       0.536872   -0.553726    1.156745
H       1.465492    1.688925   -0.180921
H      -0.127067    2.135923   -0.815955
H       0.137053    2.045144    0.938825
H      -1.122463    0.080386    0.117472
H       0.178030    0.046792   -2.239641
H       0.874094   -2.281713   -2.398971
H      -0.115473   -3.355758   -0.159780
H       1.782067   -4.208575   -1.054143
H       0.722282   -2.543831    1.953321
H       2.490090   -0.699814    2.075110
H       2.535932   -0.690492    0.241753
