17

O      -0.174144    0.053779    0.475211
C      -0.044669    1.212003    0.133881
N       1.120578    1.795472   -0.243508
C       2.403837    1.110773   -0.234753
C       3.005970    0.969930   -1.628517
C       4.200549    1.553004   -1.727981
C       4.578743    2.196455   -0.431900
N       3.626238    3.282175   -0.041778
C       3.472535    1.916871    0.511626
H      -0.890959    1.926411    0.092125
H       1.144757    2.778439   -0.472406
H       2.222043    0.137984    0.231347
H       2.458488    0.486591   -2.429088
H       4.814352    1.602254   -2.619124
H       5.612547    2.277065   -0.115720
H       4.067382    3.866385    0.666872
H       3.625683    1.756791    1.572455
