22

C       0.165456    1.669084   -0.013737
C       0.045128    0.143818    0.069147
C       0.534279   -0.546374   -1.195039
C       0.341999   -2.076500   -1.388377
C      -0.394332   -1.724027   -2.686371
C      -0.171986   -2.386997   -4.016391
O      -0.869251   -3.621484   -4.137853
C      -1.538265   -0.843523   -2.392918
N      -0.195171   -0.228257   -2.487598
H       1.208371    1.975022   -0.151086
H      -0.406256    2.058401   -0.861244
H      -0.206346    2.146408    0.897794
H       0.637051   -0.236949    0.912205
H      -0.993345   -0.136951    0.282241
H       1.579835   -0.268781   -1.363621
H       1.283216   -2.610384   -1.541926
H      -0.244441   -2.608804   -0.632649
H      -0.555296   -1.739042   -4.810546
H       0.907128   -2.520415   -4.194238
H      -0.497462   -4.233899   -3.495160
H      -2.180372   -0.559480   -3.221017
H      -2.045678   -0.905332   -1.433830
