13

C       0.892607    0.980287   -0.090887
O      -0.026993    0.206552   -0.855889
C      -0.448311    0.664825    0.432546
C      -0.649385   -0.381675    1.456046
N      -1.457526   -0.164323    2.468104
O      -1.416443   -1.321654    3.235654
C      -0.587972   -2.200480    2.651364
C      -0.062245   -1.679710    1.516381
H       1.756118    0.440292    0.293953
H       1.093048    1.982486   -0.466502
H      -1.204072    1.447380    0.426348
H      -0.480840   -3.148908    3.154632
H       0.613242   -2.135760    0.813368
