21

O       0.137862    1.375283    0.091146
C       0.053082   -0.015619   -0.098827
C       0.924093   -0.553228   -1.190031
C       1.249112   -0.851482    0.263759
C      -1.358456   -0.542171    0.116649
C      -2.395593    0.033881   -0.880638
C      -2.701603   -1.157475   -1.804538
C      -2.477497   -2.339618   -0.860938
O      -1.375108   -1.962580   -0.042576
H       0.071553    1.547051    1.037539
H       0.544588   -1.369489   -1.792366
H       1.547897    0.165068   -1.708865
H       2.094163   -0.331613    0.701667
H       1.075327   -1.859506    0.620258
H      -1.651713   -0.297712    1.151366
H      -3.299946    0.344476   -0.348689
H      -2.002567    0.906490   -1.404414
H      -3.710967   -1.130821   -2.222649
H      -1.990340   -1.199193   -2.635186
H      -3.371107   -2.522506   -0.242052
H      -2.215679   -3.274130   -1.365680
