18

C       0.122293    1.424816    0.161346
N      -0.022419   -0.013233    0.029747
C      -1.144331   -0.603576   -0.058752
N      -1.162282   -1.997567   -0.074337
C      -2.248528   -2.699610   -0.733883
C      -3.557720   -2.217121   -0.126543
N      -3.594434   -0.765625   -0.194611
C      -2.514103    0.067991   -0.095471
O      -2.643047    1.278337   -0.058566
H       1.186262    1.647120    0.287883
H      -0.243727    1.959308   -0.722244
H      -0.428434    1.829476    1.017035
H      -0.232209   -2.373713   -0.204515
H      -2.266440   -2.535191   -1.823907
H      -2.133273   -3.772486   -0.558138
H      -4.407032   -2.620381   -0.686486
H      -3.635006   -2.569952    0.911575
H      -4.483652   -0.289854   -0.138174
