18

O       0.705848    0.083744    1.170053
C       0.311291    1.100685    0.667421
C       1.140450    1.999748   -0.243818
C       1.510769    3.318314    0.474121
C       2.822500    2.933137    1.155138
C       3.687706    3.923367    1.834178
N       2.969818    2.898327    2.616100
C       3.346748    1.719178    0.380534
O       2.367467    1.422839   -0.619082
H      -0.723825    1.481940    0.847886
H       0.550850    2.179713   -1.152321
H       1.667455    4.103913   -0.270985
H       0.749477    3.667210    1.179066
H       4.768684    3.808481    1.814404
H       3.346600    4.955434    1.879612
H       2.158840    3.309941    3.072002
H       4.291415    1.916299   -0.136592
H       3.475853    0.872888    1.063269
