19

O      -0.136885    1.486233    0.083579
C      -0.005497    0.068022    0.057582
C      -1.408122   -0.491458   -0.165765
C      -1.582098   -1.940659    0.296314
C      -0.875847   -3.046394   -0.477497
O      -1.410225   -4.136270   -0.576325
C       0.470001   -2.876508   -1.081854
C       1.223474   -1.791368   -1.306370
C       0.997906   -0.334135   -1.026507
H       0.736690    1.868797    0.216123
H       0.361502   -0.293226    1.033263
H      -2.094918    0.137145    0.409290
H      -1.690370   -0.378945   -1.219671
H      -1.237315   -2.027263    1.337513
H      -2.639585   -2.216506    0.304693
H       0.847274   -3.832499   -1.436838
H       2.162220   -1.977664   -1.827572
H       0.688504    0.152955   -1.964066
H       1.973036    0.112626   -0.783268
