18

N      -0.166608   -1.196965    0.052090
C      -0.114299   -0.041443    0.024717
C      -0.063816    1.416785   -0.001647
C      -0.155269    2.021282    1.459963
C       1.414449    2.128643    1.485481
C       1.338100    2.011899   -0.016930
C       1.638185    2.594606   -1.170116
C       0.518509    2.351538   -2.177972
C      -0.711737    2.022148   -1.273839
H      -0.632521    3.002928    1.437815
H      -0.621859    1.392373    2.219593
H       1.862752    3.033427    1.899992
H       1.858901    1.253833    1.970242
H       2.493917    3.227261   -1.374759
H       0.335911    3.230004   -2.805010
H       0.749308    1.523108   -2.860927
H      -1.436702    1.360754   -1.753179
H      -1.225128    2.950108   -1.002966
