16

C      -0.041852    1.441476    0.047212
N      -0.005569   -0.006002    0.013344
C       0.037888   -0.760791   -1.131990
C       0.103123   -2.091109   -0.764731
O       0.152953   -3.119168   -1.658877
C       0.102799   -2.152813    0.644712
C       0.035945   -0.841808    1.110754
C       0.007567   -0.362892    2.433787
C      -0.017047    0.042699    3.569967
H       0.899736    1.869097   -0.314335
H      -0.860453    1.816454   -0.574458
H      -0.202026    1.764276    1.076145
H       0.018515   -0.306802   -2.108585
H       0.192153   -3.946124   -1.170071
H       0.138785   -3.034385    1.266201
H      -0.038091    0.390141    4.572804
