16

C      -0.062055    1.429763    0.030838
C       1.329688    0.831531    0.004418
C       2.059475    0.490094    1.285357
O       1.190370   -0.377744    2.047701
C       0.128879   -0.822367    1.281946
O       0.244083   -2.194692    0.780976
C      -0.035622   -2.110594   -0.544257
N      -0.185456   -0.968606   -1.092292
C       0.096989   -0.050903   -0.024221
H      -0.442774    1.864819    0.951522
H      -0.382211    1.929891   -0.876376
H       1.909628    0.947907   -0.902392
H       2.999181   -0.028947    1.060219
H       2.283447    1.348088    1.928256
H      -0.766284   -0.813948    1.913233
H      -0.106255   -3.064169   -1.055167
