15

O       0.094870   -0.070500    0.002456
C       0.022806    1.162077    0.009522
C      -1.230937    1.857490    0.029757
C      -1.534782    3.196673    0.040469
N      -0.784576    4.317947    0.035970
C       0.529745    4.315287    0.018363
C       1.489666    3.288596    0.000439
C       1.322553    1.914038   -0.004142
N       2.358616    1.068345   -0.022224
H       3.314792    1.375164   -0.033337
H       2.108206    0.085812   -0.023668
H      -2.076472    1.174881    0.037704
H      -2.602821    3.416877    0.055878
H       0.964366    5.317285    0.017494
H       2.520313    3.639376   -0.011618
