17

C      -0.287781    1.500157    0.045984
C       0.094038    0.032285   -0.063259
N       0.990454   -0.340830   -1.183740
C       2.007198   -0.999955   -0.338499
C       1.189236   -0.507713    0.875986
O       1.359566   -0.512436    2.055845
C       0.480308   -0.801220   -2.382988
N       1.389435   -1.501443   -3.157508
O      -0.677237   -0.616536   -2.710377
H       0.598054    2.141010    0.017292
H      -0.944725    1.770106   -0.784381
H      -0.817591    1.677526    0.986557
H      -0.806287   -0.597473   -0.045658
H       2.045182   -2.092243   -0.437793
H       3.021795   -0.592652   -0.415858
H       2.368725   -1.282195   -3.058776
H       1.080287   -1.636206   -4.108046
