15

C      -0.017660    1.544411    0.019773
C      -0.002165    0.049682    0.033236
N      -0.058674   -0.613596   -1.097907
O      -0.025446   -1.976753   -0.743893
C       0.049403   -2.062698    0.584023
N       0.094780   -3.311678    1.176630
C       0.073659   -4.558604    0.573477
O       0.010246   -4.777187   -0.606011
C       0.068908   -0.823115    1.154897
H       0.888512    1.948851    0.482222
H      -0.078430    1.907101   -1.007817
H      -0.874706    1.931452    0.580352
H       0.150708   -3.302563    2.183708
H       0.124560   -5.349401    1.347388
H       0.124659   -0.570616    2.200549
