18

C      -0.021574    1.427642    0.051758
N      -0.127177   -0.023521    0.096923
C       0.600919   -0.708444    1.045184
N       1.204633   -0.077580    2.032492
O       1.766231   -1.119885    2.820484
C       1.479887   -2.294419    2.247921
N       2.016235   -3.406815    2.862324
C       0.738851   -2.132241    1.112858
C       0.180428   -3.155837    0.177476
H       0.999876    1.780390   -0.148213
H      -0.692099    1.806749   -0.722970
H      -0.329403    1.839154    1.015886
H      -0.135261   -0.473127   -0.806150
H       2.192409   -3.269589    3.848595
H       1.507612   -4.261263    2.685493
H      -0.861378   -2.931127   -0.080084
H       0.741775   -3.226224   -0.763955
H       0.190017   -4.155974    0.623890
