17

C      -0.171674    1.417013    0.314750
C      -0.083130   -0.017337    0.080146
C       0.002531   -1.201874   -0.117352
C       0.074897   -2.639848   -0.347563
C      -1.256460   -3.345723   -0.047402
C      -1.197216   -4.834205   -0.280961
O      -0.221489   -5.438712   -0.663492
C      -2.478601   -5.637959   -0.010069
O      -3.506089   -5.144412    0.371958
H       0.553924    1.743269    1.068058
H       0.025569    1.983867   -0.601863
H      -1.168000    1.701451    0.670973
H       0.364345   -2.846677   -1.384682
H       0.864159   -3.086246    0.268852
H      -1.575636   -3.173230    0.988125
H      -2.072398   -2.935125   -0.655347
H      -2.351403   -6.723818   -0.205802
