21

C      -0.089864    1.461134    0.065841
C      -0.029827   -0.041946   -0.027405
C      -0.379821   -0.773236   -1.314379
C      -0.154038   -2.199141   -0.856077
C      -0.493697   -2.344457    0.620633
C      -0.408189   -0.901790    1.169195
C       1.040215   -0.817881    0.722891
C       0.956776   -2.271418    0.178235
C       2.050507   -3.293232    0.229076
H       0.592301    1.932364   -0.651146
H      -1.099915    1.832667   -0.142137
H       0.190569    1.807453    1.065978
H      -1.415899   -0.588858   -1.624150
H       0.281995   -0.488483   -2.141616
H      -0.308808   -3.045466   -1.516005
H      -1.046372   -3.172474    1.044675
H      -0.875211   -0.517051    2.066125
H       1.890389   -0.362870    1.215245
H       2.444100   -3.411286    1.245611
H       1.687548   -4.272483   -0.100810
H       2.890177   -3.014861   -0.420263
