20

C       0.005935    1.498738   -0.082951
C      -0.015496    0.000115    0.056600
C      -1.289876   -0.767016   -0.277953
O      -1.108745   -2.075873    0.263586
C      -0.284956   -1.950409    1.406203
C      -0.867477   -2.227511    2.767342
C       0.080421   -3.216941    2.105466
C       0.624557   -0.787620    1.146038
N       1.237094   -0.729496   -0.192222
H       0.971096    1.895659    0.239779
H      -0.145123    1.797756   -1.126664
H      -0.783606    1.962910    0.518077
H      -2.158529   -0.262556    0.174434
H      -1.474634   -0.878732   -1.352150
H      -0.510349   -1.654840    3.617286
H      -1.916972   -2.496618    2.802815
H      -0.350631   -4.131881    1.714760
H       1.085971   -3.318103    2.498977
H       1.188096   -0.348773    1.963020
H       1.050655   -1.600257   -0.688366
