14

C      -0.048895    1.549989    0.005961
C       0.048861    0.023843    0.002235
N       0.824948   -0.480235   -1.149240
C       1.765421   -1.185257   -0.657223
N       1.790104   -1.287866    0.729230
C       0.742213   -0.528666    1.252275
N       0.400784   -0.306861    2.454844
H       0.948539    1.999051    0.021413
H      -0.568868    1.896988   -0.890148
H      -0.591473    1.879129    0.895453
H      -0.962530   -0.397497   -0.055256
H       2.521543   -1.699391   -1.242689
H       2.493375   -1.760410    1.271914
H       1.013025   -0.777137    3.123481
