18

C      -0.257060    1.534741   -0.052694
C       0.087006    0.044197    0.082748
C       0.796528   -0.489813   -1.132349
C       0.065223   -0.960882   -2.387985
C       0.979365   -1.923363   -1.718046
C       2.424150   -1.619599   -2.141480
C       2.229776   -0.223845   -1.488890
O       2.997250    0.645182   -1.177153
H       0.651370    2.121400   -0.214273
H      -0.927887    1.709022   -0.900350
H      -0.749599    1.905920    0.851078
H       0.723939   -0.102607    0.963703
H      -0.825540   -0.539871    0.255261
H      -0.999074   -1.108152   -2.229736
H       0.315317   -0.557589   -3.366082
H       0.641474   -2.846186   -1.265143
H       3.188838   -2.181292   -1.597303
H       2.642715   -1.660606   -3.212857
