17

C      -0.059683    1.623070   -0.014763
C       0.097109    0.109492   -0.022689
C       0.775600   -0.619223   -1.171870
C       2.275501   -0.748625   -1.042838
C       3.019830    0.143540   -0.112630
C       2.383807    0.148261    1.060371
C       1.121580   -0.656697    0.905596
N       1.394918   -1.635227   -0.247663
H       0.899614    2.130692   -0.141299
H      -0.717694    1.939920   -0.831594
H      -0.509196    1.969886    0.922539
H      -0.876785   -0.367429    0.126219
H       0.281558   -0.913747   -2.094365
H       2.786060   -1.231070   -1.871210
H       3.912731    0.690833   -0.384974
H       2.626453    0.738039    1.935029
H       0.719342   -1.126283    1.802406
