20

C      -0.155590    1.287297    0.125406
C      -0.028110   -0.194872   -0.138075
C       0.961839   -0.791109   -1.120270
C       1.914478    0.026913   -1.929657
C       2.929906   -0.668246   -2.809193
C       1.765353    0.053679   -3.432592
N       1.124067   -0.945542    0.315050
C       2.150646   -0.523969    1.126201
O       2.015398    0.119799    2.141748
H       0.774159    1.827371   -0.062246
H      -0.936933    1.710962   -0.513672
H      -0.427515    1.461154    1.169676
H      -0.963904   -0.742406   -0.024046
H       0.647308   -1.706926   -1.623638
H       2.245513    0.948335   -1.462340
H       3.917510   -0.228948   -2.891977
H       2.922073   -1.753071   -2.828147
H       0.973802   -0.544507   -3.871921
H       1.948028    0.991525   -3.944318
H       3.129381   -0.912143    0.782057
