23

C      -0.112904    1.619044   -0.020145
C      -0.045218    0.104377    0.030340
C      -1.297615   -0.579269   -0.470155
O      -1.475814   -0.257765   -1.845660
C       1.269763   -0.586922   -0.254510
C       0.700172   -0.604568    1.146131
C       1.360890    0.121950    2.275251
C       0.748525    0.102325    3.655739
C       2.024458   -0.656703    3.385802
H       0.842362    2.082951    0.236999
H      -0.384645    1.942965   -1.028646
H      -0.869541    2.005257    0.673698
H      -1.206293   -1.668488   -0.331393
H      -2.163580   -0.242743    0.123960
H      -2.344221   -0.569872   -2.115858
H       1.261340   -1.503193   -0.835405
H       2.135503    0.042777   -0.434868
H       0.261678   -1.552334    1.455692
H       1.858473    1.045550    1.996282
H       0.799404    1.002598    4.258361
H      -0.161961   -0.471803    3.794707
H       1.971344   -1.739843    3.343763
H       2.950366   -0.275427    3.802272
