20

O      -0.680674    0.940894    1.504464
C      -0.083813    0.104829    0.559790
C      -0.544073   -1.313292    0.362775
C      -0.820994   -0.261239   -0.707119
C      -2.170814    0.384328   -0.922448
C      -3.169777   -0.032320   -2.040230
C      -4.213617   -0.137829   -0.927934
C      -3.787452   -1.146215    0.051480
N      -3.212991    0.215194    0.165002
H      -1.642820    0.828253    1.459050
H       0.979530    0.313916    0.502545
H       0.187909   -2.083041    0.140969
H      -1.363402   -1.641899    0.990676
H      -0.229780   -0.332501   -1.617209
H      -2.010120    1.465742   -0.990686
H      -3.347579    0.761109   -2.767276
H      -2.973522   -0.966205   -2.574878
H      -5.209978    0.290244   -0.945292
H      -4.453638   -1.372935    0.877926
H      -3.162473   -1.973253   -0.273134
