17

C       0.000234    1.522459   -0.156627
C       0.040841    0.070344   -0.068683
C       0.076884   -1.131924   -0.006287
C       0.106439   -2.593507    0.085667
C       0.653625   -3.089194    1.438493
C      -0.615766   -3.198171    2.286673
O      -0.690531   -3.310005    3.479902
C      -1.787432   -3.128401    1.302158
O      -1.215233   -3.165702    0.008692
H       0.852054    1.906102   -0.728567
H      -0.913890    1.861265   -0.656027
H       0.029654    1.984294    0.836098
H       0.657122   -3.009681   -0.762267
H       1.082362   -4.091988    1.331337
H       1.393943   -2.438199    1.902995
H      -2.466587   -3.977137    1.422007
H      -2.351874   -2.200358    1.483222
