18

O       0.011782   -0.063056    0.114645
C      -0.004723    1.142231   -0.040777
C      -1.312651    1.939376   -0.096858
N      -1.240470    3.153885   -0.914773
C      -0.111369    3.987226   -0.565484
C      -0.085100    5.354789   -1.212525
C      -0.419579    5.248184    0.244297
C       1.160516    3.288609   -0.294705
C       1.222028    1.958568   -0.116282
H      -2.109548    1.288688   -0.464525
H      -1.574589    2.221880    0.932840
H      -1.145632    2.880762   -1.889814
H       0.877366    5.763043   -1.500233
H      -0.896975    5.564464   -1.899629
H      -1.455948    5.368140    0.535179
H       0.311150    5.579472    0.973093
H       2.062736    3.895426   -0.238692
H       2.161633    1.440110    0.044569
