19

C      -0.031381    1.483598    0.057370
C      -0.007371   -0.010450    0.004879
C      -0.019791   -0.759755   -1.114959
C       0.011828   -2.196247   -0.798390
O       0.010051   -3.126486   -1.573751
C       0.048216   -2.309521    0.736538
C       0.034574   -0.865886    1.228450
C       0.805258   -0.439655    2.465626
C      -0.694330   -0.465322    2.499079
H       0.854155    1.877330    0.570204
H      -0.062270    1.913840   -0.945689
H      -0.904446    1.847757    0.611730
H      -0.048988   -0.387171   -2.131297
H      -0.815623   -2.888717    1.077795
H       0.945845   -2.858532    1.038194
H       1.347767   -1.215899    2.994471
H       1.301897    0.524505    2.459388
H      -1.223472    0.481263    2.515763
H      -1.185839   -1.259299    3.050956
