18

O       0.002201    0.016533    0.148245
C      -0.012676    1.210637    0.045643
C      -1.176252    2.210697   -0.009564
C      -0.821532    3.043101    1.256283
C       0.755339    3.069665    1.245619
C       1.117053    2.250695   -0.012833
N       0.756366    3.121005   -1.161861
C       0.074177    2.427694   -2.271557
C      -0.740895    3.056196   -1.200528
H      -2.176771    1.784274   -0.044158
H      -1.250951    4.046738    1.204796
H      -1.205895    2.561373    2.159039
H       1.153286    4.082826    1.159868
H       1.169027    2.609384    2.146436
H       2.135839    1.872141   -0.075106
H       0.170615    2.937817   -3.224676
H       0.122884    1.342650   -2.336805
H      -1.254578    3.997351   -1.380584
