21

C      -0.044517    1.501070    0.031476
C      -0.047779    0.011922   -0.031456
C      -0.046613   -0.807636   -1.085477
C       0.042638   -2.250377   -0.552619
C      -0.837881   -2.080004    0.719666
C       0.036278   -0.894567    1.223290
C       1.407874   -1.595490    1.194404
C       1.423728   -2.406552    0.133947
C       2.517252   -3.261224   -0.409444
H       0.869740    1.873695    0.513388
H      -0.106246    1.947983   -0.965042
H      -0.884444    1.880844    0.627571
H      -0.043251   -0.537558   -2.133720
H      -0.224208   -3.038947   -1.257643
H      -1.869920   -1.796363    0.493468
H      -0.813168   -2.946372    1.387138
H      -0.239513   -0.419904    2.166022
H       2.215223   -1.396583    1.887505
H       3.408748   -3.228132    0.223590
H       2.202466   -4.308981   -0.499712
H       2.806646   -2.937552   -1.418623
