17

O      -0.144036    1.416527   -0.083895
C      -0.014595    0.033117   -0.040681
C       1.000329   -0.689922   -0.917358
C       0.445965   -2.127783   -0.847819
C       0.776198   -2.753878    0.505616
O       0.419423   -1.869561    1.572688
C      -0.386013   -0.791014    1.180330
C      -1.232822   -0.862906   -0.074932
O      -0.982951   -1.972996   -0.903839
H       0.551848    1.801155    0.461064
H       0.965372   -0.287860   -1.934143
H       2.027218   -0.633018   -0.542554
H       0.749542   -2.776545   -1.671231
H       0.220682   -3.695176    0.607853
H       1.848978   -2.967879    0.593849
H      -0.795209   -0.272400    2.040836
H      -2.254289   -0.505250   -0.110760
