15

C      -0.359899    1.427108    0.240442
C      -0.127896   -0.053127    0.134287
C      -0.146638   -0.698052   -1.107258
N       0.051012   -2.004131   -1.271298
C       0.277545   -2.704734   -0.156933
N       0.322331   -2.221910    1.079046
C       0.120669   -0.903618    1.223014
C       0.187127   -0.440681    2.642834
O       0.036875    0.699991    3.009190
H       0.492355    1.931986    0.703169
H      -0.529585    1.855130   -0.751504
H      -1.221511    1.651039    0.875132
H      -0.332138   -0.118961   -2.010675
H       0.440850   -3.772729   -0.274980
H       0.393994   -1.273227    3.345598
