16

C       0.217290    1.486243    0.020275
C       0.003618    0.017027   -0.027242
N      -1.114796   -0.636363   -0.081583
C      -0.746283   -1.981487   -0.110602
C      -1.768208   -3.070630   -0.149810
C      -2.554366   -3.161584    1.153485
O      -2.821416   -4.194224    1.708857
C       0.604838   -2.056761   -0.066152
O       1.100774   -0.782274   -0.017438
H       0.755005    1.776047    0.928824
H       0.809835    1.825131   -0.835647
H      -0.751377    1.985778    0.004008
H      -2.495602   -2.850378   -0.943984
H      -1.321613   -4.045759   -0.356635
H      -2.876286   -2.177903    1.558551
H       1.324154   -2.857257   -0.068103
