21

C      -0.079078    1.756328    1.378369
C      -0.046595    0.285819    0.957160
C       0.966699   -0.539601    1.759982
N       0.896611   -1.938081    1.385818
C       1.940199   -2.586680    1.081597
C       3.380766   -2.127156    1.047145
O       1.860247   -3.892582    0.729326
C       0.555386   -4.466500    0.725876
H       0.897547    2.234335    1.240527
H      -0.809460    2.321572    0.791551
H      -0.350015    1.861133    2.435145
H      -1.036205   -0.168706    1.079262
H       0.198676    0.204469   -0.109112
H       1.968437   -0.096886    1.641608
H       0.716001   -0.457313    2.827925
H       3.719100   -1.839904    2.047149
H       4.017531   -2.930982    0.678050
H       3.497751   -1.255366    0.397463
H      -0.101025   -3.941881    0.025633
H       0.690727   -5.505237    0.419939
H       0.102572   -4.414456    1.720233
