17

C       0.075890    1.508915   -0.177495
C       0.026393   -0.001023   -0.049015
O       0.688540   -0.555804   -1.205983
C       0.734571   -1.899762   -1.255078
O       0.270530   -2.633839   -0.417196
C       1.415128   -2.347572   -2.447148
C       1.972363   -2.784998   -3.421153
C       2.654290   -3.266358   -4.613721
O       2.670053   -4.684129   -4.622218
H       1.109567    1.863685   -0.213955
H      -0.434383    1.840035   -1.086156
H      -0.417505    1.969554    0.683403
H       0.535703   -0.355245    0.852614
H      -1.000200   -0.378791   -0.015035
H       2.136411   -2.858712   -5.497598
H       3.673899   -2.846871   -4.623026
H       3.125665   -4.963449   -5.422954
