19

C       1.387755    0.441995   -0.114145
O       0.367744   -0.090053   -0.961384
C      -0.014331    0.405481    0.325934
C      -0.506853   -0.532937    1.399588
C      -1.974347   -1.115037    1.290212
C      -1.369383   -2.187887    0.321686
C      -0.166927   -2.071868    1.320367
C      -0.842030   -2.544679    2.615749
C      -2.024675   -1.921396    2.594160
H       2.091701   -0.289438    0.279939
H       1.829358    1.380742   -0.445551
H      -0.567551    1.346908    0.277015
H      -0.291981   -0.066284    2.367546
H      -2.826798   -0.491231    1.020173
H      -1.880900   -3.152082    0.279366
H      -1.138781   -1.810680   -0.674656
H       0.830368   -2.440728    1.081945
H      -0.421332   -3.218618    3.348427
H      -2.838328   -1.943127    3.305197
