21

C      -0.115503    1.656251    0.002801
C       0.023420    0.144345    0.002852
C       1.171103   -0.580381   -0.784719
C       2.420570   -0.037355   -0.101067
C       2.101805   -0.068261    1.198695
C       0.676318   -0.629660    1.218564
C      -0.041188   -0.844731    2.530148
C       0.899014   -1.802809    0.190145
O      -0.269597   -2.555571   -0.018534
H       0.827740    2.154540    0.241401
H      -0.450120    2.012977   -0.977993
H      -0.865023    1.976009    0.735849
H      -0.934799   -0.322081   -0.241756
H       1.160713   -0.687975   -1.870156
H       3.346924    0.249983   -0.578704
H       2.692840    0.191442    2.066526
H      -0.268785    0.109620    3.018178
H      -0.982289   -1.379205    2.371174
H       0.566622   -1.435665    3.224990
H       1.767684   -2.444578    0.385393
H      -0.075217   -3.245936   -0.659507
