20

C       0.098960    1.356808    0.098748
O      -0.207534    0.003156   -0.146050
C       0.536012   -0.567120   -1.201309
C       2.036377   -0.841555   -0.873692
N       2.365803   -2.155508   -1.460157
C       1.611938   -3.312252   -0.945953
C       0.283046   -2.913640   -0.289891
C       0.024514   -1.973405   -1.511210
C       1.224957   -2.648087   -2.228471
H       1.137703    1.496187    0.433764
H      -0.058551    1.976690   -0.798224
H      -0.571454    1.703804    0.888853
H       0.455894    0.075564   -2.094843
H       2.705987   -0.095799   -1.311220
H       2.195832   -0.846806    0.209618
H       2.173359   -4.224287   -0.774378
H      -0.411811   -3.756583   -0.280750
H       0.301982   -2.451062    0.700258
H      -0.965319   -2.010439   -1.963062
H       1.332906   -2.940769   -3.265916
