18

C      -0.008208    1.448247   -0.277690
N      -0.107939    0.003905   -0.247353
C      -1.227573   -0.646620    0.192511
O      -2.229601   -0.078241    0.593868
C      -1.115085   -2.093501    0.138266
C      -1.080130   -3.300633    0.116348
C      -1.052409   -4.729619    0.095828
C      -1.776418   -5.516033    1.182526
C      -2.328111   -5.506764   -0.207803
H       0.810151    1.805922    0.357593
H       0.153522    1.816511   -1.297226
H      -0.950836    1.846710    0.098896
H       0.668062   -0.556075   -0.559321
H      -0.130747   -5.169652   -0.272836
H      -1.286536   -6.413045    1.543640
H      -2.292475   -4.940434    1.941168
H      -3.221275   -4.924817   -0.399530
H      -2.223182   -6.397304   -0.816857
