17

C      -0.563517    1.422270   -0.010156
C       0.201988    0.116036    0.034280
C       1.082323   -0.177696   -1.222323
N       2.244121   -0.746877   -0.579107
C       3.495299   -1.278479   -0.868841
C       4.130046   -1.327351    0.343649
N       3.336498   -0.820251    1.372079
C       2.245712   -0.485236    0.751560
O       1.118349    0.132663    1.162903
H       0.120359    2.264748   -0.147728
H      -1.279362    1.411936   -0.838381
H      -1.116838    1.572155    0.920101
H      -0.482748   -0.726204    0.194179
H       0.588933   -0.873574   -1.906018
H       1.331606    0.739114   -1.772857
H       3.780525   -1.592886   -1.857875
H       5.116657   -1.711844    0.552457
