22

C      -0.055931    1.588990    0.220002
C      -0.006488    0.071073   -0.031046
C       0.840624   -0.621066    1.049641
C      -1.435659   -0.497104   -0.010400
O      -2.022436   -0.224610    1.253362
C       0.562408   -0.226852   -1.439051
N       1.926236    0.230655   -1.647520
C       2.983325   -0.615088   -1.780927
O       2.927662   -1.825401   -1.725960
H       0.951171    2.018053    0.252459
H      -0.621979    2.104480   -0.565544
H      -0.541868    1.801519    1.174438
H       0.385281   -0.483039    2.032798
H       0.924739   -1.695370    0.855756
H       1.853532   -0.209630    1.075307
H      -2.025408   -0.039094   -0.822216
H      -1.396953   -1.581638   -0.201122
H      -2.898774   -0.618856    1.270549
H       0.580096   -1.305299   -1.616665
H      -0.084697    0.231122   -2.198704
H       2.102765    1.218923   -1.726604
H       3.928432   -0.061966   -1.953316
