18

C       0.144539    1.596621   -0.200226
C       0.100201    0.150078   -0.049644
C       0.064103   -1.046059    0.083267
C       0.035779   -2.492349    0.215076
O       0.346767   -2.875720    1.592799
C      -0.668266   -3.680310    1.982803
N      -1.619515   -3.944027    1.192096
C      -1.346106   -3.208082   -0.056661
C      -2.513332   -2.292333   -0.414314
H       0.911033    1.898559   -0.922098
H      -0.816715    1.991356   -0.546646
H       0.378049    2.080850    0.754199
H       0.821239   -2.933136   -0.407699
H      -0.573104   -4.050451    2.998145
H      -1.212278   -3.939347   -0.861481
H      -2.676492   -1.544979    0.366580
H      -2.326620   -1.769074   -1.356197
H      -3.422505   -2.890103   -0.517125
