17

C      -0.055128    1.448881   -0.162473
N      -0.113250   -0.000136   -0.172102
C      -1.193207   -0.700063    0.265363
O      -2.198846   -0.144773    0.715546
C      -1.102180   -2.178075    0.147677
C      -1.757106   -3.008077    1.257189
C      -2.429600   -2.924850   -0.070286
O      -3.610795   -2.239006   -0.264126
H       0.761979    1.809845    0.471824
H       0.082911    1.847276   -1.173597
H      -1.002718    1.810078    0.237395
H       0.680862   -0.514242   -0.514905
H      -0.211815   -2.581770   -0.324081
H      -1.257605   -3.925229    1.549436
H      -2.197144   -2.434737    2.065942
H      -2.371924   -3.793203   -0.719564
H      -3.492653   -1.366086    0.155809
