19

C      -0.344330    1.334572    0.063165
N       0.074526   -0.058189    0.095674
C       1.455318   -0.357338   -0.258986
C       0.978192   -0.548528    1.140937
C       1.514461    0.315263    2.264393
C       0.563324    0.335315    3.480063
O       0.337023   -0.950600    4.026681
C       1.063910    1.269855    4.510304
N       1.488454    1.981498    5.315783
H       0.439027    2.063965    0.324149
H      -0.684835    1.568010   -0.950476
H      -1.192405    1.479215    0.740921
H       1.613749   -1.207933   -0.916993
H       2.126312    0.484043   -0.436871
H       0.730113   -1.557335    1.463872
H       2.484757   -0.078433    2.595057
H       1.696786    1.342283    1.936285
H      -0.423608    0.686922    3.160503
H       1.168942   -1.275510    4.391077
