20

C      -0.644446    1.423846    0.266071
N      -1.024190    0.033844    0.419585
C      -0.648893   -0.921976   -0.464171
O       0.061837   -0.726936   -1.436074
C      -1.116244   -2.356718   -0.134342
C      -0.134081   -2.989362    0.882040
C      -2.536386   -2.481586    0.411013
C      -3.412404   -3.537154   -0.225782
O      -2.939336   -1.788587    1.325232
H      -0.152504    1.797909    1.170434
H       0.049141    1.487880   -0.572985
H      -1.514548    2.057356    0.057592
H      -1.684400   -0.239871    1.135964
H      -1.037095   -2.900355   -1.078429
H       0.887114   -2.909665    0.501313
H      -0.195013   -2.475308    1.844438
H      -0.359737   -4.048406    1.041879
H      -2.903057   -4.507335   -0.232830
H      -4.361009   -3.614006    0.306409
H      -3.596072   -3.273032   -1.274116
