15

O       0.074185    1.234921    0.437696
C       0.081779   -0.032395   -0.189237
C      -1.303332   -0.644581   -0.208386
C      -1.640730   -2.074906   -0.134052
C      -0.662920   -2.902145    0.701071
C      -0.920061   -1.854825    1.794705
O      -0.525229   -1.650123    2.900060
N      -1.953482   -1.147539    1.055875
H      -0.211776    1.108197    1.349810
H       0.404029    0.139052   -1.222060
H       0.816100   -0.707192    0.271800
H      -2.020047   -0.030497   -0.749084
H      -2.459754   -2.498138   -0.703433
H      -1.070441   -3.875051    0.988606
H       0.362214   -3.033939    0.348629
