19

C      -0.018235    1.492902   -0.012225
C      -0.026211   -0.022535    0.013261
C      -0.855171   -0.742654    1.037242
C       0.662015   -0.736834    1.177724
C       1.470207   -1.938287    0.897021
C       1.596504   -2.482387   -0.319970
C       0.934391   -1.898955   -1.504896
O      -0.515510   -1.926701   -1.559682
C       0.123411   -0.673619   -1.338954
H       0.898520    1.880647   -0.471559
H      -0.868815    1.883208   -0.583314
H      -0.080921    1.903312    0.999737
H      -1.419258   -0.144314    1.744890
H      -1.318610   -1.671730    0.729666
H       1.045259   -0.103285    1.973096
H       1.999069   -2.380025    1.738007
H       2.215576   -3.361370   -0.469367
H       1.396039   -2.098406   -2.470609
H       0.058469    0.014998   -2.181956
