21

C      -0.092433    1.566443    0.043572
C      -0.034870    0.057572    0.017337
C       1.048985   -0.736713   -0.906960
C       0.744854   -1.879238    0.121771
C       1.207375   -2.727697    1.339767
O       0.476439   -1.779527    2.216375
C       0.691692   -0.792851    1.135335
C      -0.747577   -2.168565   -0.200819
C      -1.314165   -0.725327   -0.286407
H       0.877306    2.001741    0.306056
H      -0.384871    1.966090   -0.934214
H      -0.829271    1.914919    0.776150
H       0.763814   -0.887026   -1.952694
H       2.049568   -0.307847   -0.838887
H       0.818522   -3.744910    1.438504
H       2.281344   -2.698534    1.556924
H       1.663689   -0.322544    1.337317
H      -0.839246   -2.719020   -1.142355
H      -1.229896   -2.751204    0.585093
H      -2.093541   -0.533372    0.457172
H      -1.722111   -0.473490   -1.270446
