20

C       0.004746    1.954690   -0.385713
C      -0.094554    0.494473    0.057488
N      -1.497925    0.133499    0.236743
C      -1.891004   -0.894773    1.031390
O      -1.134128   -1.606794    1.659987
C       0.629015   -0.503791   -0.895988
C       0.140497   -0.483717   -2.343149
C       2.126516   -0.301234   -0.789051
O       2.870327   -0.123941   -1.720366
H       1.049647    2.246066   -0.523634
H      -0.510413    2.123408   -1.337372
H      -0.438263    2.614765    0.365285
H       0.372460    0.385186    1.042892
H      -2.199853    0.644871   -0.274389
H      -2.992444   -1.013394    1.049977
H       0.443089   -1.491268   -0.447987
H      -0.943672   -0.621426   -2.387965
H       0.398938    0.454032   -2.841826
H       0.609877   -1.288007   -2.914278
H       2.518058   -0.332756    0.254901
