19

O      -0.209631    1.323416   -0.262806
C      -0.011898   -0.048251   -0.044656
C      -0.400147   -0.579451    1.327046
C      -1.300908   -0.809688    0.139608
C       1.118749   -0.640234   -0.788077
C       1.878879   -0.037361   -1.701810
C       2.926429   -0.981545   -2.211503
O       2.683666   -2.211760   -1.530519
C       1.614319   -2.056657   -0.607329
H       0.559238    1.784867    0.092088
H       0.144335   -1.420339    1.741411
H      -0.709295    0.168101    2.048488
H      -2.203194   -0.213799    0.069634
H      -1.376514   -1.808025   -0.274854
H       1.764555    0.978738   -2.054269
H       2.860142   -1.143393   -3.298998
H       3.950943   -0.632125   -2.001591
H       1.973488   -2.242444    0.418278
H       0.836202   -2.808052   -0.815982
