23

C      -0.020990    1.543629    0.190503
C      -0.085054    0.016393    0.275894
C      -1.378044   -0.560882   -0.314429
C      -1.439094   -2.072930   -0.240074
C      -1.880345   -2.771519    1.037245
C      -2.752791   -2.793275   -0.198215
O      -3.902530   -1.992958   -0.209176
C      -2.943681   -4.077599   -0.962198
O      -4.047106   -4.753821   -0.356552
H       0.910041    1.930414    0.616890
H      -0.078175    1.885244   -0.849204
H      -0.853427    2.004821    0.733597
H       0.778890   -0.416739   -0.246007
H       0.004604   -0.300594    1.322646
H      -2.246443   -0.141089    0.203825
H      -1.470762   -0.245172   -1.362755
H      -0.652082   -2.578656   -0.797615
H      -1.375274   -3.679996    1.347801
H      -2.224297   -2.138090    1.848071
H      -4.621104   -2.578154    0.062289
H      -3.161910   -3.846296   -2.015107
H      -2.030093   -4.688857   -0.923716
H      -4.389741   -5.398604   -0.981419
