15

N       0.173031   -1.125484    0.848426
C       0.028806   -0.066521    0.410195
C      -0.180042    1.279960   -0.151385
N       1.099950    1.988244   -0.223956
C       1.609262    2.804192   -1.283047
C       0.574124    3.863298   -1.835414
O      -0.679811    3.672352   -1.170362
C       0.358943    4.389741   -0.494017
C       1.386056    3.350127    0.108121
H      -0.638485    1.179416   -1.138224
H      -0.897444    1.813078    0.477296
H       2.529025    2.533242   -1.789044
H       0.572870    4.342418   -2.806048
H       0.144917    5.389407   -0.138280
H       2.099124    3.584744    0.890359
