18

O       0.968478    0.510538    1.075869
C       0.706066    1.461966    0.388779
C       1.123338    1.592578   -1.072790
N       1.181644    2.981667   -1.508113
C       2.419661    3.667476   -1.206722
C       3.685206    3.370216   -2.017092
C       2.936638    4.660141   -2.222860
C       2.598455    3.973055    0.191600
C       2.761717    4.207541    1.359947
H       0.093675    2.314749    0.753920
H       2.051942    1.021213   -1.225696
H       0.334042    1.090411   -1.648629
H       0.972250    3.062974   -2.494181
H       4.640821    3.402587   -1.507548
H       3.598667    2.604243   -2.780523
H       2.353877    4.779431   -3.131093
H       3.370703    5.579006   -1.848333
H       2.897170    4.412495    2.393115
