21

C       0.132629    1.519896    0.108733
C      -0.009944    0.026728    0.072203
C      -0.832875   -0.766895   -0.953049
C      -1.249996   -1.782695    0.160532
C      -0.417911   -0.999219    1.176535
C       0.992851   -0.887301    0.702073
C       1.995618   -1.897862    0.141660
C       2.979432   -1.210400    1.111211
O       1.954436   -0.311360    1.595312
H       0.756207    1.825961    0.952706
H       0.610855    1.886633   -0.808610
H      -0.840190    2.017260    0.194134
H      -1.685337   -0.199174   -1.334808
H      -0.278565   -1.169031   -1.808985
H      -2.321501   -1.749710    0.368590
H      -0.962080   -2.828805    0.006448
H      -0.653755   -0.833206    2.222076
H       1.777681   -2.944528    0.363721
H       2.229260   -1.794033   -0.919872
H       3.375458   -1.839224    1.916285
H       3.805398   -0.664669    0.640933
