18

C      -0.179092    1.563798    0.031817
C       0.019846    0.043145   -0.009464
C       0.813834   -0.478728   -1.212098
C       2.257428   -0.085025   -1.354851
C       1.902384   -1.410926   -0.697557
C       1.794192   -1.353362    0.779383
C       0.809093   -0.527408    1.172318
C       0.497040   -0.197310    2.517086
N       0.206521    0.094695    3.600804
H       0.779094    2.090952    0.004356
H      -0.773174    1.894037   -0.825434
H      -0.703893    1.863742    0.943712
H      -0.975126   -0.423540   -0.010067
H       0.265893   -0.721444   -2.114614
H       2.680045   -0.130346   -2.352800
H       2.668696    0.695107   -0.723408
H       2.177365   -2.336216   -1.189733
H       2.452498   -1.890932    1.451464
