21

C      -0.144480    1.521513    0.091572
C      -0.022891    0.027962   -0.041972
C      -0.073820   -0.566514   -1.245784
C       0.062256   -1.982356   -1.574463
C       0.001029   -3.073930   -0.796661
C      -0.281274   -3.191538    0.673493
C      -0.766601   -1.942260    1.412435
O      -0.830033   -2.203903    2.814496
C       0.161956   -0.731981    1.250792
H       0.730512    1.943217    0.604183
H      -0.241140    2.013692   -0.879627
H      -1.015696    1.793166    0.702882
H      -0.188786    0.082640   -2.111849
H       0.251565   -2.165545   -2.630879
H       0.173059   -4.030946   -1.285869
H      -1.031003   -3.986257    0.813914
H       0.618623   -3.556607    1.191035
H      -1.763091   -1.663087    1.036783
H      -1.383647   -2.980087    2.947554
H       1.204794   -1.064086    1.349061
H      -0.028721   -0.067768    2.099139
