16

N      -0.074721    1.339509    0.235100
C      -0.030303    0.110445   -0.035894
O       1.131788   -0.605104   -0.103597
C       1.374938   -1.565492   -1.130998
O       0.446563   -2.600613   -1.195822
C      -0.699865   -2.243301   -1.916158
C      -2.023524   -2.580024   -1.293782
C      -1.559618   -1.151031   -1.332814
O      -1.181654   -0.614647   -0.091861
H       0.874040    1.703290    0.318775
H       1.445016   -1.041453   -2.095881
H       2.335788   -2.006136   -0.862495
H      -0.586843   -2.300974   -2.997871
H      -2.841078   -2.886204   -1.935292
H      -1.980273   -3.055247   -0.320903
H      -2.043587   -0.433967   -1.991185
