22

C       0.112850    1.598586    0.112606
C      -0.001333    0.074233    0.000167
N       0.601416   -0.469454   -1.213927
C       2.049331   -0.700920   -1.217344
C       2.424516   -2.120723   -0.786175
C      -0.100616   -0.775214   -2.333526
O       0.428244   -1.232330   -3.343311
C      -1.621539   -0.549284   -2.356597
O      -2.112387   -0.854164   -3.626916
H       1.157994    1.921503    0.092379
H      -0.408872    2.093078   -0.711858
H      -0.327800    1.942661    1.053568
H       0.489630   -0.400105    0.857810
H      -1.049705   -0.227603    0.048827
H       2.411680   -0.512098   -2.229505
H       2.507162    0.037720   -0.551573
H       2.050723   -2.348295    0.217621
H       2.007261   -2.848845   -1.486036
H       3.512690   -2.238132   -0.775020
H      -2.091735   -1.185911   -1.588175
H      -1.851324    0.493202   -2.089293
H      -1.329449   -1.174446   -4.110278
