19

C      -0.021583    1.480238    0.032631
C       0.066008   -0.035781    0.086903
O       1.129744   -0.614928    0.113983
C      -1.234279   -0.793086    0.077140
C      -2.101694   -0.915163   -1.240995
C      -2.733738   -2.091998   -0.423700
C      -1.281958   -2.356727    0.108154
C      -3.324536   -1.314695    0.760549
C      -2.355637   -0.455432    1.084363
H       0.976278    1.902004   -0.093455
H      -0.673315    1.804398   -0.785766
H      -0.462526    1.866646    0.958767
H      -2.747074   -0.071211   -1.494151
H      -1.517342   -1.244944   -2.105616
H      -3.334238   -2.867511   -0.897197
H      -0.615195   -2.815603   -0.626122
H      -1.181841   -2.836385    1.083338
H      -4.296880   -1.463332    1.208254
H      -2.310414    0.289649    1.865505
