17

C       0.043228    1.566334    0.052168
C       0.008789    0.035717    0.000768
N       0.689893   -0.450658   -1.184105
C       1.719102   -1.196560   -1.097401
N       2.429966   -1.598838   -2.199393
C       1.930204   -1.317821   -3.531840
C       2.286058   -1.687497    0.157088
N       2.718907   -2.080651    1.154670
H       1.070575    1.928437    0.157728
H      -0.373733    1.990556   -0.865494
H      -0.538874    1.932925    0.903280
H       0.421183   -0.377826    0.933470
H      -1.036239   -0.294045   -0.062673
H       3.046882   -2.384775   -2.079231
H       0.957844   -1.791095   -3.719184
H       1.802385   -0.239998   -3.657962
H       2.657381   -1.680810   -4.260492
