11

N       0.031214    1.378347    0.164167
C      -0.036404   -0.002590    0.052664
C      -1.102624   -0.840328    0.002406
O      -0.588357   -2.144944   -0.028036
C       0.737691   -1.962160    0.002911
O       1.508830   -3.047549   -0.022175
N       1.147866   -0.739364    0.049807
H       0.914052    1.736931   -0.173532
H      -0.749103    1.869811   -0.247488
H      -2.171889   -0.744958   -0.005402
H       0.937010   -3.824011   -0.055658
