18

C      -0.000117    1.538375   -0.069418
C       0.009601    0.034939    0.047436
N       1.342502   -0.640103   -0.108125
C       0.633172   -0.668023    1.167168
C       1.148157   -0.285597    2.569340
O      -0.112634   -0.826554    3.119537
C       0.285381   -1.827264    2.108182
C       1.744708   -1.721182    2.692328
O       2.873697   -2.106523    1.982976
H       0.885356    1.966865    0.407008
H      -0.003383    1.847237   -1.119683
H      -0.890342    1.954954    0.412980
H      -0.827800   -0.471715   -0.429918
H       1.219316   -1.525474   -0.596209
H       1.507648    0.667374    2.956316
H      -0.364624   -2.689947    1.958288
H       1.815662   -2.084437    3.718549
H       2.901169   -1.599330    1.160692
