15

O       0.001006    1.362746    0.137580
C       0.048842   -0.001560    0.068678
C       0.681726   -1.013964    1.100743
C       0.054730   -1.948794    0.000977
C      -1.181061   -0.969575    0.021157
C       0.049331   -3.371373   -0.043432
C       0.054385   -4.572769   -0.099519
C       0.656527   -0.916332   -0.997540
O       1.268385   -0.854992   -2.016038
H       0.640938    1.723878   -0.486931
H       1.767037   -1.031295    1.209932
H       0.163055   -1.053806    2.060331
H      -1.757931   -1.010767    0.946927
H      -1.815258   -0.947612   -0.865983
H       0.060695   -5.633328   -0.151456
