13

O       0.144130    1.381723    0.096332
C      -0.024288    0.005810   -0.103916
C      -1.478365   -0.378028    0.156436
O      -2.347998    0.428607    0.332783
C      -1.713828   -1.901896    0.186161
C      -3.099449   -2.296423    0.006510
C      -4.243202   -2.626249   -0.148244
H       1.053687    1.607416   -0.119114
H       0.207197   -0.308028   -1.138003
H       0.615770   -0.607462    0.555194
H      -1.070183   -2.381532   -0.563278
H      -1.339673   -2.254959    1.158706
H      -5.257339   -2.909874   -0.283943
