18

O      -0.254337    0.054051   -0.309985
C       0.093343    1.163514    0.000460
C       1.401704    1.808366   -0.387603
C       1.193757    3.179749   -1.040809
C       2.469035    4.016725   -1.040510
O       3.375124    3.844018   -0.256115
N       2.448539    5.078115   -1.942870
C       2.538761    4.945674   -3.388359
C       3.643641    5.568515   -2.587195
H      -0.562275    1.813499    0.629485
H       1.993901    1.961256    0.524552
H       1.957037    1.126340   -1.036500
H       0.801637    3.087758   -2.058440
H       0.443297    3.757453   -0.482573
H       2.715951    3.953637   -3.797422
H       1.862261    5.567709   -3.967702
H       3.770234    6.646923   -2.593777
H       4.552374    4.992996   -2.434900
