21

C      -0.022561    1.460996   -0.382354
C      -0.047531    0.027635    0.109120
O       0.495873   -0.902080   -0.860835
C       1.277412   -1.573949    0.153574
C       2.763222   -1.738916   -0.204705
C       3.626992   -1.504877    1.011508
C       3.339430   -0.522614    1.866447
C       2.141378    0.366481    1.628740
C       0.936003   -0.488632    1.198601
H       0.984731    1.776509   -0.665819
H      -0.664165    1.557778   -1.264066
H      -0.401154    2.140605    0.388947
H      -1.084211   -0.249078    0.354652
H       0.838604   -2.551483    0.394203
H       2.954809   -2.720699   -0.647226
H       2.990530   -0.995971   -0.981133
H       4.490503   -2.144741    1.166689
H       3.963291   -0.337954    2.735811
H       1.899603    0.953802    2.519646
H       2.388008    1.093044    0.843320
H       0.438886   -0.878946    2.089167
