16

O       0.063371    1.467865   -0.413412
C       0.012347    0.100609   -0.087487
C       0.154803   -0.303169    1.430710
C      -1.283254   -0.871244    1.402459
O      -2.266939    0.088167    1.821571
C      -2.495062    0.520520    0.455579
C      -1.443212   -0.461481   -0.087912
C       0.912012   -0.674325   -0.955785
N       1.638304   -1.272287   -1.627928
H       0.973657    1.774752   -0.331871
H       0.943460   -1.033321    1.621743
H       0.265646    0.556838    2.093899
H      -1.457790   -1.868654    1.809855
H      -3.517216    0.291140    0.134211
H      -2.288903    1.583724    0.308302
H      -1.720832   -1.121586   -0.906032
