16

O       0.081028    1.366620    0.239859
C       0.048141   -0.001929   -0.120095
C      -1.372030   -0.553368   -0.023752
C      -1.608632   -2.084699   -0.079659
O      -0.911079   -2.669450    1.017199
C      -2.215909   -2.102910    1.272467
C      -1.986487   -0.619289    1.379046
N      -2.190374    0.315805    2.207263
O      -2.828055   -0.142536    3.369176
H      -0.321854    1.442962    1.114290
H       0.411459   -0.061289   -1.151874
H       0.713655   -0.610000    0.508534
H      -2.038739   -0.013501   -0.705425
H      -1.818345   -2.710265   -0.938336
H      -2.963647   -2.740408    1.723160
H      -2.939889    0.668081    3.878099
