20

C      -0.096958    1.540031    0.014068
C       0.011028    0.012496    0.032796
C       0.748302   -0.484279   -1.209192
O       0.963298   -1.909558   -1.238490
C       1.365037   -2.531969   -0.103011
N       2.116025   -3.551535   -0.102476
C       0.786677   -2.046473    1.217966
O       1.502746   -2.571996    2.302416
C       0.735038   -0.519116    1.274545
H       0.894397    2.006725    0.033449
H      -0.618166    1.895227   -0.881250
H      -0.649644    1.898586    0.887397
H      -1.002749   -0.411180    0.013764
H       0.190506   -0.266241   -2.123248
H       1.728068    0.009476   -1.282703
H       2.422681   -3.793874   -1.044595
H      -0.257152   -2.414931    1.230868
H       2.008316   -3.316146    1.937655
H       1.759598   -0.126964    1.317337
H       0.231672   -0.207282    2.195051
