18

O      -0.159298    1.415518   -0.237247
C      -0.012434    0.037569    0.071841
C      -1.387055   -0.610499   -0.020562
C      -1.354840   -2.109522    0.272676
N      -2.698171   -2.676092    0.221543
C      -3.150936   -3.146046   -1.083432
C      -2.787080   -4.111979   -0.010079
H       0.704969    1.831653   -0.171435
H       0.682532   -0.454734   -0.629005
H       0.398919   -0.101431    1.085552
H      -2.066318   -0.117273    0.682365
H      -1.789386   -0.436511   -1.025489
H      -0.669193   -2.617080   -0.433238
H      -0.959077   -2.287025    1.280960
H      -4.191702   -2.950725   -1.325123
H      -2.463924   -3.058916   -1.924632
H      -1.859152   -4.668108   -0.137989
H      -3.556971   -4.635944    0.549354
