17

O      -0.966491    1.270583    0.451339
C      -0.034621    1.265279   -0.320226
C       1.184554    2.100098   -0.212381
C       1.148472    3.628723   -0.171327
C      -0.024207    4.163767    0.660905
C       0.568750    3.418785    1.902512
C      -0.333493    2.542515    2.745646
O      -1.388256    2.927852    3.179124
C       1.681292    2.838793    1.013273
H      -0.057111    0.608999   -1.218685
H       1.996323    1.742776   -0.841579
H       1.698532    4.187653   -0.918221
H      -0.005621    5.249415    0.764268
H      -1.025133    3.848650    0.362573
H       1.010840    4.152239    2.587540
H       0.068214    1.534897    2.991885
H       2.711377    2.698565    1.319699
