27

C       0.141618    1.526845   -0.141227
C       0.040418   -0.001881   -0.175190
C      -1.378777   -0.559290    0.064489
C      -2.284190   -0.324778   -1.163023
C      -3.785660   -0.458579   -0.887330
C      -1.333428   -2.054743    0.443782
C      -0.840159   -2.338934    1.866967
C      -0.817081   -3.825943    2.195727
O      -0.349297   -3.974882    3.528682
H       1.172517    1.854806   -0.308667
H      -0.479231    2.001740   -0.907468
H      -0.176780    1.919039    0.831194
H       0.405885   -0.376318   -1.141777
H       0.722185   -0.408046    0.580516
H      -1.816561   -0.010983    0.913206
H      -2.096619    0.677389   -1.564832
H      -1.989182   -1.025786   -1.956479
H      -4.369043   -0.271987   -1.794675
H      -4.054386   -1.456845   -0.527559
H      -4.111274    0.263203   -0.129780
H      -2.334960   -2.488635    0.334009
H      -0.696970   -2.582111   -0.281886
H       0.169631   -1.943097    2.023298
H      -1.487732   -1.834268    2.594760
H      -1.828848   -4.248987    2.079549
H      -0.162087   -4.354046    1.482846
H      -0.336057   -4.912896    3.739374
