15

N      -0.031222   -1.231989   -0.077631
C      -0.031789   -0.076145   -0.047140
C      -0.009165    1.372410    0.018081
C      -0.189091    2.092915    1.379519
C       0.963110    1.701482    2.308849
C       2.123614    1.729112    1.293038
C       1.680588    2.980340    1.992134
N       0.688420    3.250955    0.865939
C       1.344257    2.129326    0.037298
H      -0.674728    1.811667   -0.730308
H      -1.175535    2.317284    1.782063
H       0.975059    1.089086    3.199331
H       3.020906    1.137797    1.408561
H       2.185426    3.727631    2.589219
H       1.867291    2.389533   -0.881496
