17

O       0.231472    1.387792   -0.045077
C       0.054709    0.011179    0.045394
C      -1.386670   -0.518745   -0.376201
C      -1.128089   -1.920579   -0.980784
C      -0.350154   -2.278761   -2.241920
C       0.341783   -1.265982   -3.156337
N       0.867720   -0.262479   -2.203031
C       0.728124   -0.781557   -1.046987
N       0.341162   -2.170054   -0.946772
H       0.410289    1.567769   -0.980799
H       0.299116   -0.310782    1.059893
H      -2.051828   -0.603155    0.486486
H      -1.821675    0.198362   -1.076391
H      -1.735605   -2.731152   -0.585113
H      -0.501205   -3.287831   -2.616772
H       1.132638   -1.759098   -3.737340
H      -0.317488   -0.755159   -3.866003
