19

O      -0.024038    1.384143   -0.395104
C       0.034502    0.082830    0.178073
C      -1.345067   -0.522504    0.006265
C      -1.754928   -0.970065   -1.409997
O      -2.079555   -2.301207   -0.941512
C      -1.594769   -2.012168    0.382793
C      -0.411982   -2.869453    0.764227
C      -0.136453   -4.129173    0.061917
O       0.653894   -2.960272   -0.181291
H       0.868361    1.741274   -0.418558
H       0.786441   -0.542854   -0.318693
H       0.293508    0.131661    1.248971
H      -2.079723    0.145925    0.461705
H      -2.624730   -0.472459   -1.850593
H      -0.935239   -0.986725   -2.137828
H      -2.379888   -2.160746    1.138329
H      -0.089054   -2.770540    1.802778
H       0.374396   -4.936007    0.584710
H      -0.787984   -4.416343   -0.758656
