17

C       0.105545   -1.235379    0.074709
C       0.053487   -0.035596    0.008490
C      -0.047747    1.401897   -0.052141
C      -1.213828    2.108656    0.699942
N      -1.385403    3.124255   -0.391036
C      -0.298799    4.163128   -0.302569
C       0.738966    3.203568   -0.925526
N       1.234822    2.151921   -0.012269
C      -0.467013    2.291138   -1.276573
H       0.163616   -2.294512    0.126256
H      -2.105791    1.477697    0.762635
H      -0.989952    2.515477    1.692245
H      -0.547264    5.003951   -0.959560
H      -0.101112    4.546926    0.704634
H       1.486917    3.594534   -1.619151
H       1.538638    2.455343    0.910701
H      -0.798705    1.945495   -2.252497
