21

C       1.717717   -4.032189    1.537132
C       1.057845   -2.845342    0.867280
N       0.356354   -1.783118    1.595432
C       0.255752   -1.796790    3.046761
C       1.607095   -1.449014    0.916811
C       2.880955   -1.115500    1.670162
C       1.382212   -0.571468   -0.321822
C       1.273620    0.848878    0.013519
N       1.200919    1.965643    0.302345
H       2.297182   -3.769261    2.423067
H       0.962316   -4.766322    1.837935
H       2.394038   -4.527648    0.832578
H       0.535516   -3.129341   -0.048531
H       1.122260   -2.205913    3.584040
H       0.095720   -0.771971    3.394855
H      -0.622203   -2.386637    3.328377
H       3.751375   -1.246156    1.017680
H       2.868897   -0.071179    1.999221
H       3.031413   -1.741508    2.549378
H       2.205185   -0.698758   -1.035810
H       0.458795   -0.881565   -0.818904
