23

C       0.164471    1.542316   -0.318483
C      -0.104241    0.044869   -0.441641
C      -1.476993   -0.380388    0.052134
O      -2.310792    0.442086    0.382474
C      -1.736897   -1.878560    0.133017
C      -3.229009   -2.292874    0.091294
C      -3.866952   -1.911576   -1.257132
C      -3.348298   -3.800310    0.327351
O      -3.929788   -1.675118    1.163535
H       1.155724    1.789464   -0.707989
H      -0.580727    2.117784   -0.872592
H       0.113674    1.864492    0.724972
H      -0.024932   -0.287413   -1.487070
H       0.647745   -0.548026    0.096958
H      -1.163318   -2.390669   -0.648572
H      -1.311001   -2.209495    1.091293
H      -3.370375   -2.414502   -2.094550
H      -4.920760   -2.203007   -1.256458
H      -3.815546   -0.831964   -1.423821
H      -2.915435   -4.070194    1.295040
H      -4.403247   -4.088469    0.336967
H      -2.839457   -4.368739   -0.457318
H      -3.749026   -0.726804    1.085388
