19

C       0.050706    1.498333   -0.025189
N       1.270200    0.670197    0.049244
C      -0.051184    0.020239    0.004944
C      -0.450035   -0.716569    1.269973
O      -0.023565   -2.068330    1.212215
C      -0.720944   -2.827221    0.240552
C      -0.776786   -2.162293   -1.131117
N      -1.846163   -1.161493   -1.313021
C      -0.443570   -0.715657   -1.240366
H      -0.161203    2.079421    0.868918
H      -0.187908    2.005886   -0.957018
H       1.719683    0.625626   -0.863362
H       0.053229   -0.266074    2.128196
H      -1.539958   -0.657622    1.412002
H      -0.186682   -3.779582    0.172785
H      -1.750402   -3.030480    0.576713
H      -0.537186   -2.801088   -1.977617
H      -2.166737   -1.152065   -2.277472
H       0.028036   -0.362855   -2.157298
