20

C       0.001632    1.509052    0.119834
C      -0.015708   -0.005984   -0.041657
C       0.615623   -0.455481   -1.368164
C       0.355713   -1.902285   -1.708858
C       0.678945   -2.916887   -0.911521
C       1.394828   -2.764513    0.413487
C       0.731948   -1.848252    1.418221
N       0.378570   -2.289040    2.551539
O       0.670457   -0.508670    1.124933
H       1.026997    1.888525    0.067552
H      -0.586605    1.984634   -0.670107
H      -0.418694    1.791122    1.088048
H      -1.052117   -0.369636   -0.004385
H       0.218256    0.186889   -2.160441
H       1.694962   -0.251747   -1.315373
H      -0.135171   -2.109111   -2.656010
H       0.448782   -3.933076   -1.218356
H       1.504551   -3.732139    0.902774
H       2.406377   -2.370492    0.233264
H      -0.013285   -1.522658    3.104573
