17

C      -0.147691    1.361423    0.053330
O      -0.049143   -0.046227    0.000359
C       0.693033   -0.521323   -1.098884
C       0.618988   -2.043760   -1.037869
O      -0.704346   -2.480446   -0.941100
C       1.448074   -2.795684   -2.092599
O       2.372051   -3.265464   -1.062296
C       1.631433   -2.696671   -0.050472
O       1.816199   -2.775695    1.118605
H       0.842208    1.828520    0.157713
H      -0.632549    1.766007   -0.847859
H      -0.751863    1.610118    0.927987
H       0.248633   -0.176115   -2.047869
H       1.737498   -0.173688   -1.061594
H      -1.136635   -1.880130   -0.317900
H       0.912690   -3.626769   -2.554152
H       1.968661   -2.193994   -2.841081
