20

C      -0.014316    1.543353   -0.477719
C       0.005919    0.161108    0.185331
C      -1.363281   -0.482666    0.253473
C      -1.937289   -1.233912   -0.946827
C      -1.534533   -1.965299    0.293114
C      -0.511417   -3.079794    0.493318
C      -1.606337   -3.701367    1.386947
O      -2.499821   -2.590908    1.143972
H       0.988947    1.979024   -0.519878
H      -0.400263    1.482212   -1.500585
H      -0.656671    2.236198    0.076584
H       0.688685   -0.497681   -0.366980
H       0.420034    0.246481    1.198868
H      -2.100691    0.063918    0.838278
H      -2.999642   -1.139334   -1.145038
H      -1.315817   -1.341515   -1.831996
H      -0.254674   -3.650315   -0.401284
H       0.404367   -2.787542    1.011407
H      -2.029175   -4.647534    1.030083
H      -1.357821   -3.796805    2.450121
