16

N       0.060784    1.456189   -0.024129
C       0.024255    0.045363   -0.013270
C      -1.092508   -0.760383    0.104235
C      -2.540416   -0.449090    0.219032
O      -3.271317   -1.428858   -0.525346
N      -0.648517   -2.067516    0.192369
C       0.710792   -2.104577    0.089304
C       1.165799   -0.809448   -0.019314
H       0.826121    1.802228   -0.590324
H      -0.799243    1.861049   -0.375245
H      -2.877664   -0.459377    1.270154
H      -2.728602    0.568296   -0.161305
H      -4.198561   -1.353838   -0.279114
H      -1.272822   -2.852522    0.128050
H       1.247273   -3.039818    0.091574
H       2.197599   -0.498039   -0.083602
