16

C      -0.250632    1.536260    0.005687
C       0.074911    0.062583   -0.041519
O       1.391390   -0.199664   -0.667673
C       1.914369   -0.700840    0.488178
O       3.028369   -1.049063    0.714304
C       0.578646   -0.609644    1.253945
O       0.537026    0.210225    2.395561
C       1.242607   -0.224220    3.475367
N       1.182987    0.435213    4.545559
H       0.515654    2.091638    0.549873
H      -0.327783    1.932600   -1.010217
H      -1.207659    1.687748    0.513491
H      -0.685119   -0.513717   -0.573835
H       0.136666   -1.593697    1.448632
H       1.821421   -1.134385    3.284039
H       1.765351   -0.001364    5.257219
