23

C      -0.138787    1.582461   -0.113877
C       0.101320    0.081763    0.066466
C       0.594619   -0.593292   -1.213186
C       0.811767   -2.091495   -1.090646
O       0.463186   -2.705049   -0.099520
C       1.493983   -2.782993   -2.262862
C       1.240662   -4.300020   -2.319256
C       1.919630   -4.943662   -3.521714
O       1.735768   -4.939802   -1.158105
H       0.778445    2.101819   -0.413780
H      -0.893756    1.776317   -0.884257
H      -0.489400    2.039593    0.816247
H       0.832012   -0.089266    0.864863
H      -0.817731   -0.413069    0.396381
H      -0.119954   -0.438525   -2.036194
H       1.530759   -0.140653   -1.570557
H       1.193516   -2.295172   -3.198309
H       2.574487   -2.606008   -2.155984
H       0.150782   -4.454725   -2.404113
H       1.733895   -6.020892   -3.518282
H       1.542090   -4.526594   -4.460461
H       3.002288   -4.786151   -3.477870
H       1.299262   -4.498208   -0.415623
