15

N      -0.423823    1.332755    0.400287
C       0.008140    0.030341    0.146301
N      -0.678465   -0.767755   -0.667156
N      -0.022431   -1.953896   -0.594253
C       1.065516   -1.915937    0.208640
C       1.909583   -3.134835    0.421338
O       1.995777   -3.939711   -0.749684
C       1.123952   -0.633275    0.718405
H       0.333649    1.998988    0.467439
H      -1.101621    1.636659   -0.287334
H      -0.322829   -2.731732   -1.155676
H       2.899255   -2.835581    0.794013
H       1.465476   -3.788459    1.181271
H       2.422115   -3.411215   -1.433267
H       1.849312   -0.238807    1.411922
