18

C      -0.024369    1.565591    0.079871
C      -0.032135    0.036245    0.007457
C       0.878449   -0.528044   -1.128945
N       2.068520   -1.113309   -0.481520
C       1.816784   -1.119594    0.766819
N       0.590179   -0.623475    1.173425
C       0.245975   -0.355931    2.543957
C       0.835549    0.873239    3.123085
N       1.314525    1.825887    3.568321
H       0.995997    1.949359    0.173991
H      -0.461728    1.972464   -0.837616
H      -0.610290    1.945277    0.922377
H      -1.065029   -0.316609   -0.094507
H       0.368430   -1.308384   -1.706009
H       1.175664    0.254897   -1.833996
H       2.495977   -1.514660    1.518263
H      -0.843382   -0.291664    2.641253
H       0.563213   -1.199513    3.168043
