17

O      -0.136011    1.076470    1.345515
C      -0.017581    0.044632    0.411136
C      -0.622992   -1.257347    0.838690
C      -1.262105   -0.472797   -0.285119
C      -2.593402    0.222343   -0.141908
C      -3.734271   -0.449667    0.563419
N      -3.089938    0.717790    1.153802
C      -2.891689    1.101938   -1.258825
N      -3.101448    1.779731   -2.171588
H      -0.269898    1.905712    0.872560
H       0.919546    0.027324   -0.143155
H      -0.124742   -2.187278    0.591490
H      -1.102236   -1.253096    1.812807
H      -1.106419   -0.870874   -1.283661
H      -4.751285   -0.288826    0.219843
H      -3.525084   -1.438342    0.963225
H      -2.423954    0.479314    1.883389
