15

C       0.053776    1.406336   -0.132625
O      -0.001734    0.001824   -0.011060
C       0.612148   -0.653421   -1.075705
C       0.510780   -2.150497   -0.866802
O      -0.003356   -2.718396    0.049744
O       1.123525   -2.769025   -1.932472
C       1.150756   -4.142228   -1.951820
N       1.711623   -4.704956   -2.925995
H       1.091829    1.772449   -0.157720
H      -0.458470    1.757278   -1.041839
H      -0.449183    1.823029    0.742105
H       0.146467   -0.412838   -2.047138
H       1.680822   -0.394906   -1.173359
H       0.663125   -4.587349   -1.084409
H       1.660911   -5.716708   -2.815033
