21

C       0.008108    1.466926    0.044266
C      -0.000600   -0.052365    0.002642
C       0.253510   -0.692292   -1.410278
C      -1.070168   -1.452698   -1.284412
C      -1.219846   -2.186226    0.030352
C      -0.107949   -2.806779    0.855406
O       1.091482   -2.052232    0.877528
C       0.895378   -0.663089    1.083326
C      -1.409299   -0.700212    0.004690
H       1.007891    1.862883   -0.168195
H      -0.683294    1.882754   -0.696104
H      -0.297908    1.839577    1.029443
H       0.200248    0.067758   -2.194885
H       1.166821   -1.278122   -1.535177
H      -1.730485   -1.684441   -2.112347
H      -2.148351   -2.750534    0.090755
H      -0.483830   -2.946824    1.885245
H       0.171241   -3.793373    0.469314
H       1.898064   -0.221950    1.057480
H       0.463252   -0.470079    2.081292
H      -2.325911   -0.201852    0.299260
