18

O       0.097328    1.362839    0.519669
C       0.076222    0.012721    0.160518
C      -1.329332   -0.488182   -0.099849
N      -2.284570    0.338169   -0.059488
C      -3.695326    0.005684   -0.118242
C      -4.125967   -1.022911   -1.158401
O      -3.577064   -2.309594   -0.905851
C      -2.240308   -2.416024   -1.238445
O      -1.331088   -1.834360   -0.302825
H      -0.828697    1.648287    0.446618
H       0.673932   -0.171584   -0.747669
H       0.514658   -0.617381    0.949833
H      -4.003991   -0.357778    0.871899
H      -4.253424    0.930974   -0.303005
H      -5.212913   -1.142154   -1.126446
H      -3.842017   -0.687678   -2.168145
H      -1.985355   -3.476413   -1.239038
H      -2.045221   -1.965199   -2.225012
