11

F       0.748936    0.400333    0.260103
C      -0.052666    1.414158   -0.046600
F       0.717539    2.451266   -0.437537
F      -0.818170    1.061591   -1.073434
C      -0.946631    1.770356    1.180487
O      -1.681746    0.942483    1.637610
N      -0.773406    3.073132    1.617796
C      -1.427514    3.692917    2.691459
O      -2.244765    3.185146    3.401994
H      -0.104793    3.632067    1.107177
H      -1.078211    4.738463    2.795429
