21

C      -1.047115    0.532498   -1.482498
C       0.033787   -0.369827   -0.904355
C       1.477235   -0.300526   -1.464269
O       1.739491    1.018958   -1.912751
C       1.999915   -0.585586   -0.023744
C       3.287171    0.070730    0.454776
C       0.602804   -0.132665    0.543281
C       0.554988    1.298544    1.013851
O       0.147431    1.632989    2.100255
H      -0.713379    1.569406   -1.554656
H      -1.324274    0.204506   -2.489872
H      -1.948102    0.501076   -0.860936
H      -0.294308   -1.413343   -0.950896
H       1.744729   -1.030344   -2.240287
H       2.676089    1.085595   -2.123957
H       2.069220   -1.670605    0.108668
H       3.293624    1.146470    0.257147
H       3.420317   -0.068835    1.532305
H       4.158700   -0.369525   -0.043696
H       0.182969   -0.755666    1.336088
H       0.928684    2.049669    0.287529
