16

N       0.065273    1.359116    0.158204
C      -0.014098    0.002469   -0.008942
C      -1.181360   -0.685301   -0.054337
C      -1.216137   -2.137314   -0.063759
O      -2.247513   -2.787508   -0.037502
C       0.144685   -2.840380   -0.053639
N       1.171995   -2.013525   -0.682092
C       1.312747   -0.718908   -0.037985
H       0.887882    1.833647   -0.178343
H      -0.787944    1.890381    0.078446
H      -2.138673   -0.172170   -0.039791
H       0.368882   -3.095508    1.001701
H       0.041035   -3.779904   -0.601168
H       2.062968   -2.496814   -0.675289
H       2.041976   -0.120937   -0.600103
H       1.685701   -0.771377    1.005618
