23

C      -0.572775    1.359334    0.519419
O      -0.709827   -0.038799    0.591012
C      -0.601847   -0.668426   -0.666476
C      -0.753088   -2.168684   -0.454572
C      -2.124500   -2.613842    0.066370
C      -2.294752   -3.996736   -0.583410
C      -3.730706   -4.506552   -0.671039
C      -1.621572   -3.757233   -1.941858
O      -0.571531   -2.820272   -1.718069
H      -0.664618    1.751385    1.535434
H       0.407543    1.653348    0.111909
H      -1.353955    1.815360   -0.109588
H      -1.384081   -0.311934   -1.358591
H       0.373403   -0.455104   -1.133568
H       0.039433   -2.500900    0.232723
H      -2.172997   -2.630942    1.156799
H      -2.905615   -1.931594   -0.293210
H      -1.689078   -4.721493   -0.023550
H      -4.364898   -3.798927   -1.217350
H      -3.781704   -5.470323   -1.189104
H      -4.163882   -4.643571    0.324784
H      -1.191736   -4.666194   -2.377519
H      -2.347357   -3.348265   -2.664043
