19

C      -0.402406    1.015244    0.286896
O       0.206601   -0.239129    0.064424
C       0.758338   -0.416195   -1.232986
C       1.617715   -1.694379   -1.214250
C       0.710777   -2.820109   -1.762680
C      -0.336184   -2.064118   -2.533010
C      -0.308158   -0.744322   -2.288024
C      -1.144437    0.235544   -2.874109
C      -1.822079    1.097206   -3.377056
H       0.287589    1.843543    0.060384
H      -1.311439    1.152077   -0.311768
H      -0.665349    1.056461    1.347198
H       1.335801    0.480594   -1.502759
H       2.477108   -1.559443   -1.877316
H       1.991578   -1.881797   -0.206115
H       1.256928   -3.532053   -2.391597
H       0.248830   -3.410398   -0.959601
H      -1.042185   -2.544748   -3.201037
H      -2.429016    1.846976   -3.820476
