16

O       0.381697    0.668032    1.099723
C       0.200688    1.419556    0.162806
N       1.111057    1.659285   -0.818145
C       2.444236    1.096447   -0.758069
C       3.418245    1.952965    0.083476
C       4.721662    1.213540    0.341361
O       5.808140    1.618124    0.016665
C       3.669420    3.321546   -0.526148
O       3.074580    3.740256   -1.488699
H      -0.741498    1.978522    0.004657
H       0.966149    2.427995   -1.454288
H       2.362000    0.101245   -0.314881
H       2.829936    0.999377   -1.775811
H       2.951984    2.100585    1.071749
H       4.596201    0.235908    0.857011
H       4.442337    3.930721   -0.018205
