15

N      -0.019765    1.315113    0.008013
C       0.076599   -0.030837    0.000809
O       1.102230   -0.683178   -0.012300
C      -1.308591   -0.718548    0.010528
O      -2.326387   -0.063630    0.023601
C      -1.279528   -2.228070    0.002322
C      -2.695208   -2.821943    0.012828
C      -2.679646   -4.282116    0.004989
N      -2.656771   -5.437216   -0.001418
H       0.813061    1.879308    0.002970
H      -0.932405    1.741017    0.019023
H      -0.705494   -2.557684   -0.871022
H      -0.688817   -2.566777    0.860936
H      -3.243274   -2.474413    0.894425
H      -3.260133   -2.465153   -0.854319
