14

O      -0.250554    0.615139   -1.308749
C      -0.017204    1.322794   -0.364198
C      -1.038265    1.546631    0.741077
O      -0.971885    2.837134    1.364256
C       0.071069    3.638427    1.063247
N       1.117031    3.410894    0.389703
C       1.312969    2.056713   -0.152812
C       2.150326    1.252521    0.736658
C       2.797080    0.569087    1.484079
H      -2.043581    1.423044    0.333123
H      -0.877789    0.785008    1.515031
H      -0.086530    4.618571    1.508980
H       1.796802    2.141356   -1.131591
H       3.389235   -0.025642    2.135380
