16

O      -0.041233    1.539299   -0.017462
C       0.066352    0.146115    0.162753
C      -1.307031   -0.508643   -0.003245
N      -1.828754   -0.227342   -1.352217
C      -2.324735   -1.314511   -1.791193
N      -2.303575   -2.413571   -0.941777
C      -1.377494   -2.074680    0.150426
C      -0.086766   -2.767401   -0.001425
N       0.905957   -3.346443   -0.126366
H      -0.510993    1.663468   -0.852237
H       0.773438   -0.308208   -0.547935
H       0.454439   -0.021576    1.173122
H      -1.988310   -0.057560    0.728344
H      -2.798165   -1.415978   -2.763227
H      -2.253628   -3.340505   -1.340987
H      -1.794201   -2.355764    1.120977
