19

C       0.021248    1.558231   -0.072434
C       0.002182    0.028611    0.009442
C      -1.416125   -0.557142    0.050754
C      -1.477013   -2.094857    0.178424
C      -2.941516   -2.404703    0.560939
C      -2.432958   -1.721254    1.853234
O      -1.109348   -2.293235    1.589683
C      -2.184343   -0.281677    1.370931
O      -2.478097    0.759817    1.890236
H       1.048864    1.934090   -0.072248
H      -0.462102    1.909405   -0.991130
H      -0.510017    2.003047    0.772438
H       0.525527   -0.395823   -0.857621
H       0.545502   -0.312295    0.897105
H      -2.000216   -0.186472   -0.800998
H      -0.897270   -2.700391   -0.517954
H      -3.752104   -1.941533   -0.007996
H      -3.114417   -3.470110    0.716728
H      -2.828201   -1.887647    2.852947
