19

C      -0.152598    1.631612    0.108681
C       0.046963    0.127953    0.101713
C       1.139334   -0.605754   -0.719791
C       2.464320    0.072614   -0.315173
C       2.231488    0.069793    1.228470
C       0.853969   -0.629624    1.213171
O       1.058683   -1.703112    0.246974
C       0.189562   -1.034606    2.489617
O       0.165629   -0.339780    3.475311
H       0.784642    2.183844    0.211088
H      -0.632164    1.956578   -0.820927
H      -0.804662    1.926581    0.937312
H      -0.900318   -0.398495   -0.042454
H       0.995034   -0.915511   -1.755064
H       3.319842   -0.537515   -0.610268
H       2.586648    1.071292   -0.742111
H       2.964724   -0.533063    1.766716
H       2.197084    1.061103    1.683021
H      -0.318978   -2.023014    2.446952
