19

N      -0.002755    1.302999    0.049372
C       0.037620   -0.083578    0.153128
O       1.077032   -0.720082    0.168971
N      -1.196716   -0.679526    0.205814
C      -2.506403   -0.220479   -0.290441
C      -2.876445   -1.696802   -0.581001
C      -2.457048   -2.200116   -1.989774
C      -1.059057   -2.621587   -1.436313
C      -1.461539   -2.100636   -0.033239
H       0.889749    1.729162    0.249005
H      -0.789254    1.780544    0.463788
H      -3.115250    0.268484    0.481099
H      -2.455404    0.435599   -1.168495
H      -3.812227   -2.062041   -0.161628
H      -3.056297   -3.041693   -2.344598
H      -2.456894   -1.433593   -2.770051
H      -0.896490   -3.702090   -1.455813
H      -0.182031   -2.133342   -1.862618
H      -1.282162   -2.745341    0.828830
