18

N       0.176654    1.208033   -0.653690
C       0.229726    0.006649   -0.029789
O       1.231423   -0.437114    0.501716
C      -1.109065   -0.768083   -0.011154
C      -1.911511   -0.684451   -1.312581
O      -2.474368    0.613775   -1.460262
C      -1.022885   -2.148223    0.664516
C      -1.966312   -1.547484    1.723340
O      -1.957777   -0.252491    1.064919
H       1.003042    1.783149   -0.654918
H      -0.680620    1.524286   -1.084848
H      -1.278684   -0.868226   -2.186240
H      -2.703888   -1.446557   -1.295491
H      -2.924681    0.783535   -0.619939
H      -1.421662   -2.980238    0.081888
H      -0.018628   -2.374040    1.017827
H      -2.976829   -1.969465    1.762313
H      -1.565152   -1.478451    2.739218
