20

C       0.055617    1.575572   -0.135694
C       0.020226    0.049605   -0.017797
C       0.718054   -0.467248    1.243820
C       0.679802   -2.003824    1.357367
C       1.366170   -2.522372    2.575004
C       0.938022   -3.168702    3.695081
C       2.125040   -3.349141    4.452446
N       3.178953   -2.857805    3.850129
O       2.697292   -2.329617    2.652585
H       1.086068    1.945811   -0.168520
H      -0.450075    1.916446   -1.044306
H      -0.438530    2.050506    0.719002
H      -1.022389   -0.295539   -0.023574
H       0.492774   -0.398571   -0.901882
H       1.763019   -0.136155    1.253897
H       0.247500   -0.030289    2.133742
H      -0.357529   -2.353901    1.374512
H       1.148827   -2.443461    0.467880
H      -0.066520   -3.470727    3.939456
H       2.247985   -3.822646    5.416569
