23

C      -0.035277    1.480602    0.102324
C       0.007499   -0.006223    0.011763
C      -0.002616   -0.843276   -1.035820
C      -0.060940   -0.588270   -2.503566
C       0.063525   -2.247356   -0.374985
C       0.071558   -3.480548   -1.249960
C      -0.969634   -2.039781    0.789646
C       0.078563   -0.962244    1.217893
C       1.159400   -1.973944    0.716421
H       0.850562    1.878569    0.615208
H      -0.085077    1.947310   -0.885860
H      -0.905098    1.824178    0.678063
H      -0.101894    0.482597   -2.722723
H       0.813564   -1.000410   -3.024351
H      -0.941641   -1.055247   -2.964135
H       0.933652   -3.486173   -1.926949
H       0.120461   -4.391651   -0.644697
H      -0.832901   -3.540708   -1.866307
H      -1.970516   -1.692118    0.519702
H      -1.025952   -2.894491    1.473805
H       0.099657   -0.530749    2.219237
H       1.315205   -2.822095    1.393281
H       2.116021   -1.565741    0.379149
