14

O      -0.045489   -0.032217   -0.237012
C      -0.044882    1.135816    0.010355
O      -1.208016    1.797697    0.220913
C      -1.118457    3.173849    0.506926
C      -0.031917    3.751832    1.352958
C      -0.123016    4.070704   -0.152736
C       1.208387    3.301027   -0.364372
C       1.295802    2.995052    1.080433
N       1.149663    1.903361    0.100635
H      -2.115758    3.572272    0.651640
H      -0.211674    4.382971    2.212313
H      -0.385273    4.990600   -0.656872
H       1.969419    3.551855   -1.091264
H       2.141543    2.949386    1.753557
