19

O       0.511454    0.300677    0.686904
C      -0.163187    0.281525   -0.558256
C      -1.522774   -0.400218   -0.480396
C      -2.010130   -1.461478   -1.440185
C      -0.885897   -2.352442   -1.908463
C      -1.044483   -3.770479   -1.368520
C      -0.574139   -2.698195   -0.438216
O       0.621676   -2.707309    0.276762
C      -1.690955   -1.813809    0.026783
H       0.740990   -0.617386    0.881681
H      -0.297974    1.328484   -0.850558
H       0.453785   -0.192235   -1.333305
H      -2.322254    0.246447   -0.123795
H      -3.001297   -1.425431   -1.878782
H      -0.190796   -2.142649   -2.713353
H      -2.025291   -4.229077   -1.262887
H      -0.272855   -4.459457   -1.708693
H       1.198819   -3.400203   -0.058231
H      -2.391407   -2.059548    0.816862
