18

C      -0.002418    1.492641    0.006331
C       0.049485   -0.000979    0.025191
C       0.373168   -1.025707   -1.010688
C       1.026402   -1.935899    0.053729
C       0.692898   -0.901667    1.121611
C      -0.103914   -2.176242    1.043127
O       0.008981   -3.091078    2.078750
C      -1.422188   -1.874528    0.345182
N      -1.034395   -0.810546   -0.581001
H       0.999191    1.923282    0.111979
H      -0.434437    1.842934   -0.934888
H      -0.620696    1.875315    0.827113
H       0.624407   -0.939827   -2.060999
H       1.900978   -2.563465   -0.039682
H       1.265863   -0.598103    1.986095
H      -0.063701   -3.976846    1.706421
H      -1.819759   -2.732438   -0.209474
H      -2.187642   -1.513992    1.039714
