18

C      -0.035858    1.584713    0.056423
C       1.476911    1.824130   -0.012611
C       2.021161    0.920495   -1.170064
C       1.045378   -0.298039   -1.137177
C       0.025284    0.055653   -0.017367
C       1.155948   -0.394422    0.951499
C       2.135666    0.820678    0.993169
C       2.904692    0.123014   -0.166679
N       1.950640   -1.063616   -0.170939
H      -0.483653    1.947958    0.988978
H      -0.577635    2.029879   -0.786448
H       1.834982    2.853397    0.015928
H       2.348148    1.346116   -2.117443
H       0.738432   -0.785339   -2.063651
H      -0.911459   -0.499794    0.006594
H       0.945948   -0.966238    1.856462
H       2.562704    1.159090    1.935887
H       3.980039   -0.042839   -0.231251
