19

O      -0.268946    1.229953    0.032695
C       0.002638   -0.166970    0.036541
C       0.810565   -0.541997    1.287473
C       2.123987    0.189412    1.417741
O       2.490022    1.082994    0.689280
C      -1.360568   -0.872470   -0.046990
C      -1.595275   -0.914629   -1.556046
O      -0.319401   -1.227835   -2.102838
C       0.679119   -0.614001   -1.296090
H       0.589866    1.670283   -0.021801
H       0.231014   -0.313352    2.194515
H       1.016709   -1.620143    1.332141
H       2.766011   -0.141748    2.263174
H      -1.291641   -1.889737    0.351792
H      -2.119223   -0.317819    0.508668
H      -2.297296   -1.688214   -1.878162
H      -1.952007    0.061331   -1.916872
H       1.103426    0.264018   -1.799047
H       1.483968   -1.342997   -1.142154
