19

C      -0.265350    1.530349   -0.104227
N      -0.080363    0.102731    0.045332
C       0.489431   -0.519205   -0.893425
N       0.707081   -1.905414   -0.885750
C       1.469448   -2.525370   -1.982713
C       2.810351   -3.161728   -1.572088
O       2.702430   -4.499960   -1.165416
C       0.162418   -2.687816    0.105326
O       0.357528   -3.884569    0.212145
H       0.148848    1.934171   -1.041895
H      -1.334481    1.768056   -0.067378
H       0.205519    2.050176    0.737447
H       0.869922   -0.040128   -1.805246
H       0.852876   -3.298358   -2.453065
H       1.645781   -1.737069   -2.719193
H       3.468301   -3.153795   -2.449505
H       3.283402   -2.520831   -0.807595
H       1.946625   -4.549588   -0.558527
H      -0.474365   -2.113414    0.789214
