17

N      -0.104559   -1.155277    0.035706
C      -0.060813    0.001300    0.031847
C      -0.000841    1.435132    0.026442
C       0.500290    2.167754    1.264898
C       1.355096    2.143374    0.034043
C       2.629726    1.366634   -0.013083
C       3.462764    1.353738   -1.270891
C       3.952267    2.094082   -0.051823
H      -0.798815    1.905969   -0.537404
H      -0.017486    3.080441    1.536321
H       0.806636    1.552702    2.103517
H       1.366069    3.057031   -0.555116
H       2.608316    0.439716    0.552496
H       3.952921    0.427829   -1.548673
H       3.114799    1.941347   -2.114201
H       3.933860    3.178813   -0.075442
H       4.780786    1.678043    0.510160
