21

C      -0.559148    1.286506   -0.332001
C       0.438033    1.702429    0.728878
C       0.446026    0.294995    0.210460
N       0.177890   -0.807822    1.102948
C      -1.160219   -1.043017    1.625076
C      -0.572021   -1.974127    0.618324
C      -1.086382   -2.089511   -0.788982
C      -2.283289   -2.925647   -1.065962
N      -2.328568   -1.468022   -1.271653
H      -1.598777    1.212882   -0.036311
H      -0.423009    1.634904   -1.349828
H       1.254871    2.363513    0.461483
H       0.053792    1.852199    1.732688
H       1.261682    0.043093   -0.461623
H      -1.215905   -1.327058    2.673002
H      -1.970683   -0.393958    1.299408
H      -0.151702   -2.909929    0.987529
H      -0.300685   -2.084777   -1.543173
H      -2.338609   -3.523220   -1.971370
H      -2.810419   -3.344401   -0.212043
H      -2.825016   -1.038302   -0.495997
