13

N       0.188803    1.070318   -0.627514
C       0.023156    0.034595    0.224722
O       0.800784   -0.277071    1.103508
C      -1.251899   -0.782465    0.003240
C      -1.165327   -2.228791    0.353007
O      -1.824108   -1.325321    1.204284
C      -2.313041   -0.421804   -0.987189
O      -2.220962    0.410897   -1.858683
H       1.028486    1.619989   -0.545560
H      -0.488561    1.251638   -1.355461
H      -1.798262   -2.948177   -0.165859
H      -0.192240   -2.571284    0.696946
H      -3.243852   -1.007048   -0.838268
