21

C      -1.795412   -0.291207   -0.323241
C      -0.324625    0.020620   -0.027964
C       0.677961   -0.607052   -1.002372
C       0.494955   -0.125624   -2.439105
O       0.661383    1.283660   -2.459437
C       2.177927   -0.484946   -0.563409
C       2.314321   -1.998724   -0.766295
O       3.242730   -2.752247   -0.817036
C       0.798503   -2.169473   -0.957458
H      -2.120536    0.148108   -1.271119
H      -1.977683   -1.370740   -0.372961
H      -2.440047    0.115848    0.461712
H      -0.173060    1.105245   -0.029088
H      -0.079363   -0.328335    0.983564
H       1.238968   -0.621671   -3.084267
H      -0.499624   -0.417994   -2.809958
H       0.571492    1.588392   -3.366910
H       2.823253    0.153600   -1.171583
H       2.304103   -0.202898    0.487749
H       0.326781   -2.614173   -0.074277
H       0.484564   -2.738261   -1.838080
