14

N       0.032210    1.326122    0.009182
C       1.271095    1.860276    0.000203
C       2.138333    0.766221   -0.014162
N       3.493591    0.708387   -0.027530
C       3.989517   -0.509175   -0.038993
C       3.218635   -1.711209   -0.038175
C       1.848060   -1.663717   -0.024717
C       1.268722   -0.376068   -0.012064
N      -0.027599   -0.016943    0.002396
H      -0.836827    1.836347    0.020345
H       1.444283    2.923568    0.004377
H       5.074956   -0.587686   -0.049877
H       3.740704   -2.661753   -0.048424
H       1.232915   -2.556733   -0.023699
