14

C      -0.123616    1.355901   -0.064412
O      -0.082269   -0.066207   -0.110865
C       0.694201   -0.577545   -1.133031
C       0.666845   -2.109041   -1.061971
O      -0.238912   -2.486028   -2.098113
C      -0.509221   -1.420948   -2.891625
O      -1.186543   -1.450368   -3.866236
O       0.126546   -0.309688   -2.419001
H       0.888242    1.775286    0.029221
H      -0.601544    1.768918   -0.958723
H      -0.706561    1.622506    0.818200
H       1.698275   -0.134411   -1.134580
H       1.646508   -2.554727   -1.256266
H       0.280099   -2.446767   -0.099890
