21

C      -0.077992    1.604891    0.272149
N       0.039308    0.156855    0.370827
C       1.189622   -0.581351   -0.116927
C       2.522273    0.146366    0.132922
C       2.173064    0.215506    1.652437
C       0.846594   -0.521470    1.362298
C       0.198056   -1.517959    2.258143
C      -1.051263   -1.163276    2.983775
N      -1.083753   -2.115157    1.862471
H       0.852249    2.160871    0.448678
H      -0.440395    1.858457   -0.728809
H      -0.821002    1.950414    0.997309
H       1.018799   -1.371183   -0.841407
H       3.382732   -0.496227   -0.064238
H       2.671147    1.093310   -0.394629
H       2.852029   -0.387351    2.259624
H       2.087745    1.205283    2.110877
H       0.888692   -2.215824    2.728295
H      -1.253652   -1.591867    3.961466
H      -1.456545   -0.167045    2.826380
H      -1.397443   -1.612998    1.031561
