21

C       0.264228    1.658623   -0.267841
C      -0.028300    0.213887    0.178560
C      -0.078070   -0.723583   -1.009224
C       0.966879   -1.545428   -1.063056
C       1.907395   -1.347956    0.098849
C       1.091746   -0.459308    1.067268
C       1.923492    0.552773    1.844794
C       1.343411    1.020685    3.168172
O       2.982052    0.972106    1.432690
H       1.245643    1.732440   -0.744224
H      -0.489659    1.989732   -0.989418
H       0.244112    2.358349    0.574245
H      -0.978914    0.215140    0.726208
H      -0.861950   -0.649833   -1.756055
H       1.161637   -2.259551   -1.855779
H       2.210159   -2.289554    0.570814
H       2.829372   -0.838741   -0.206876
H       0.572529   -1.099273    1.789154
H       1.377324    0.195881    3.890437
H       1.919020    1.861961    3.556077
H       0.289782    1.300100    3.059802
