21

C      -0.097563    1.632761    0.577238
C       0.009444    0.180277    0.091941
C       0.945385   -0.635949    0.992244
C      -1.370917   -0.483716    0.001920
C      -2.260870    0.034306   -1.114821
O      -1.880681    0.787064   -1.981419
C      -3.692282   -0.455774   -1.089157
C      -4.765494    0.472489   -1.503823
O      -4.337112   -0.572752   -2.356142
H       0.890220    2.103160    0.613329
H      -0.727987    2.227330   -0.088078
H      -0.521289    1.677274    1.588422
H       0.424054    0.195503   -0.922912
H       0.561112   -0.690537    2.018152
H       1.063937   -1.661486    0.626153
H       1.939402   -0.179498    1.037053
H      -1.271069   -1.568080   -0.162395
H      -1.917158   -0.394633    0.953327
H      -3.929076   -1.247795   -0.379269
H      -5.758079    0.359840   -1.069913
H      -4.479683    1.473383   -1.820776
