23

C       0.771437    1.059684    0.550051
O      -0.080861    0.208955   -0.203732
C       0.521206   -0.465077   -1.280961
C       1.771380   -1.273547   -1.042276
C       0.446463   -1.972981   -1.269627
C      -0.236168   -2.710554   -0.140135
C       0.320112    0.253964   -2.608888
C      -1.155837    0.307439   -3.007310
O       0.888468    1.563885   -2.586103
H       1.451495    0.488909    1.196747
H       1.371492    1.711439   -0.093340
H       0.120799    1.667217    1.185172
H       2.527764   -1.292627   -1.820018
H       2.169923   -1.300580   -0.033652
H       0.320804   -2.431497   -2.248373
H      -0.150119   -2.154398    0.796312
H      -1.303972   -2.843956   -0.344683
H       0.204515   -3.702799    0.004441
H       0.886914   -0.287666   -3.375829
H      -1.276485    0.872506   -3.935534
H      -1.562446   -0.697636   -3.153337
H      -1.740113    0.791647   -2.217196
H       0.275794    2.124627   -2.098226
