18

C      -0.030039    1.628247   -0.089062
C      -0.009939    0.102457   -0.017563
C       0.818350   -0.548165   -1.163397
O       2.066225   -0.836756   -0.548623
C       1.732907   -1.186584    0.762896
O       0.700915   -0.301181    1.168329
C      -1.448099   -0.440336   -0.033237
N      -1.826439   -1.085934    1.096073
O      -2.155180   -0.283727   -1.012214
H       0.989010    2.005165   -0.212007
H      -0.645953    1.949552   -0.932001
H      -0.446763    2.047468    0.831147
H       0.335194   -1.462513   -1.533203
H       0.992366    0.128053   -2.000899
H       1.375749   -2.231677    0.816562
H       2.604206   -1.048628    1.408809
H      -1.195486   -1.130533    1.877947
H      -2.768292   -1.432593    1.169219
