17

O       0.064628    1.399918   -0.144859
C       0.071947   -0.022255   -0.038768
C       0.692288   -0.536266    1.253302
C      -0.171888   -1.258018    1.966916
C      -1.500104   -1.352327    1.285052
C      -2.293198   -0.045277    1.127611
C      -2.059790    1.170795    1.952146
O      -2.948200    1.943724    2.225324
C      -1.360589   -0.547509    0.027088
H       0.977042    1.704480   -0.189541
H       0.579475   -0.452397   -0.917269
H       1.704409   -0.280704    1.548355
H       0.022609   -1.705903    2.934816
H      -2.072680   -2.271588    1.331602
H      -3.346972   -0.173796    0.899617
H      -1.030327    1.324675    2.321952
H      -1.840752   -0.844611   -0.896440
