23

C      -0.568312    1.443706   -0.046002
C       0.074610    0.058199   -0.047464
C       1.099089   -0.180380   -1.164491
O       1.805501   -1.352173   -0.787810
C       1.897326   -1.396529    0.640756
C       3.295196   -1.000472    1.175813
C       3.017028   -0.027119    2.333843
C       1.784592    0.750638    1.843971
C       0.896804   -0.336407    1.199167
H       0.176616    2.238738    0.057908
H      -1.111278    1.620776   -0.980675
H      -1.284956    1.548478    0.775018
H      -0.715546   -0.693350   -0.170964
H       0.646871   -0.358210   -2.145115
H       1.778159    0.685523   -1.259126
H       1.634352   -2.417243    0.937433
H       3.895840   -1.865364    1.469484
H       3.833189   -0.490002    0.369266
H       2.768906   -0.583363    3.246731
H       3.869178    0.617047    2.570010
H       1.271929    1.301461    2.637543
H       2.100449    1.486265    1.093714
H       0.254651   -0.777067    1.967651
