12

C      -0.102554    1.499071   -0.001336
C      -0.005198   -0.003431   -0.027235
C      -0.006885   -0.768907    1.264347
N       0.081868   -0.692028   -1.100873
O       0.074391    0.132154   -2.241953
H       0.783421    1.946909   -0.463540
H      -0.961504    1.836141   -0.590220
H      -0.198542    1.874630    1.019316
H      -0.926200   -0.572979    1.829825
H       0.072562   -1.840648    1.075169
H       0.829372   -0.455533    1.901331
H       0.139759   -0.512543   -2.953893
