16

O      -0.078297    1.499429   -0.067219
C      -0.042506    0.098431   -0.080896
C      -1.365939   -0.616117   -0.157866
C      -1.752347   -0.747912   -1.591046
C      -0.694520   -0.084376   -2.450997
C       0.291932   -0.656694   -1.407068
C       1.634345   -1.024627   -1.734806
C       2.773000   -1.312477   -1.996588
N      -0.787941   -1.736114   -0.994236
H       0.811446    1.827333    0.099731
H       0.568251   -0.312428    0.731956
H      -2.051147   -0.824675    0.654496
H      -2.748745   -1.057981   -1.882287
H      -0.583289   -0.594090   -3.409837
H      -0.708239    1.000055   -2.581250
H       3.774005   -1.575921   -2.234108
