20

C      -0.181280    1.522610    0.063373
C      -0.090170    0.022599    0.000177
N      -0.057439   -0.734207    1.028540
O      -0.093463    0.007728    2.219996
C      -0.042709   -0.692936   -1.336109
O      -1.181596   -0.366204   -2.133904
C       1.272412   -0.437673   -2.084220
C       1.375399   -1.233267   -3.380709
O       2.602651   -0.881754   -4.002730
H      -0.195031    1.976439   -0.929980
H      -1.086257    1.824710    0.599330
H       0.664855    1.933749    0.622800
H      -0.076263   -0.684110    2.889657
H      -0.138570   -1.762253   -1.125561
H      -1.075058    0.536446   -2.453861
H       1.375082    0.630339   -2.320053
H       2.114579   -0.697607   -1.433550
H       1.334733   -2.311104   -3.153734
H       0.514123   -1.003514   -4.023665
H       2.664413   -1.361006   -4.834035
