20

C      -0.232497    1.587116    0.013858
C      -0.028145    0.080289   -0.021622
C      -1.350445   -0.661212   -0.190715
C       1.108878   -0.464163   -0.957012
C       1.702828   -1.202676    0.269162
C       2.878448   -0.572259    1.048268
C       1.777454    0.244719    1.766151
O       1.754174    1.196077    2.493245
N       0.723752   -0.500680    1.172913
H       0.709895    2.128190    0.124421
H      -0.709824    1.912584   -0.916708
H      -0.880098    1.872703    0.848212
H      -1.822193   -0.387164   -1.140925
H      -1.199621   -1.744668   -0.182571
H      -2.037177   -0.409171    0.622762
H       0.778369   -1.097361   -1.783285
H       1.758286    0.322388   -1.352298
H       1.650214   -2.292763    0.250760
H       3.439354   -1.259418    1.686884
H       3.581483    0.041135    0.479908
