16

O      -0.074246    0.014039    0.212128
C       0.042392    1.193065    0.009810
C       1.354469    1.907343   -0.023467
N       2.505036    1.392665    0.151522
C       3.444382    2.477703    0.026469
C       4.681028    2.465800    0.889828
C       4.792757    2.200418   -0.589085
C       2.618002    3.740196   -0.262597
O       1.259023    3.245557   -0.268332
H      -0.823899    1.861344   -0.171902
H       5.029010    3.420466    1.271885
H       4.793741    1.629123    1.568914
H       4.981339    1.183778   -0.912800
H       5.217846    2.972718   -1.222589
H       2.702162    4.509906    0.511261
H       2.826026    4.188997   -1.239317
