20

C      -0.038051    1.497795    0.016444
C       0.000683   -0.012690    0.025576
C       0.945779   -0.832923   -0.911643
C       0.678941   -1.973207    0.126365
C       0.647860   -0.827828    1.192226
C      -0.794239   -2.185516   -0.081753
C      -1.340649   -0.767344   -0.162523
N      -1.366906   -3.314121   -0.160119
O      -2.757715   -3.158395   -0.357390
H       0.961636    1.922318    0.156860
H      -0.432988    1.877185   -0.933044
H      -0.680634    1.881411    0.817296
H       0.637561   -0.997015   -1.948405
H       1.978467   -0.477343   -0.872685
H       1.309946   -2.854312    0.217850
H       1.650999   -0.471734    1.439831
H       0.063800   -0.987202    2.103420
H      -2.071346   -0.561216    0.626772
H      -1.823372   -0.565423   -1.124602
H      -3.057229   -4.072683   -0.397573
