18

C      -0.112806    1.328221    0.003546
O       0.066450   -0.092334   -0.064900
C       0.615672   -0.548855   -1.208364
O       0.946828    0.145246   -2.130086
C       0.734897   -2.058996   -1.118395
O       1.312071   -2.527979   -2.322383
C       1.493363   -3.864029   -2.415467
C       2.112333   -4.205221   -3.745372
N       1.157885   -4.635991   -1.465201
H       0.847294    1.842418   -0.087275
H      -0.772267    1.672254   -0.797200
H      -0.560417    1.524079    0.977736
H       1.346219   -2.335111   -0.252331
H      -0.252822   -2.503105   -0.953455
H       2.266803   -5.281063   -3.839668
H       1.467451   -3.860166   -4.559017
H       3.071948   -3.691449   -3.855523
H       1.362679   -5.604305   -1.700087
