20

C      -0.083539    1.582069   -0.000935
C       1.413164    1.225314    0.035704
C       1.214632    0.022523    0.991766
C       1.891003   -0.921275    0.003000
C       1.298424   -2.333525   -0.080045
C      -0.148568   -2.304581   -0.626526
C      -0.969409   -1.101570   -0.097936
C      -0.012346    0.051182    0.025214
N       1.208364    0.060936   -0.960301
H      -0.497028    2.073891    0.883794
H      -0.450732    2.035222   -0.926441
H       2.283220    1.878534   -0.051189
H       1.197692    0.016245    2.088717
H       2.984882   -0.905747   -0.059526
H       1.910551   -2.971216   -0.726632
H       1.331992   -2.784144    0.921071
H      -0.089710   -2.206610   -1.714490
H      -0.660143   -3.248811   -0.417676
H      -1.791029   -0.874544   -0.786039
H      -1.417067   -1.314194    0.880779
