20

C       0.409973    1.025285    0.789318
O      -0.129384    0.458532   -0.398286
C       0.602675   -0.529177   -0.955109
N       0.212757   -1.073261   -2.019303
C       0.976092   -2.153978   -2.630151
C       2.278370   -2.596678   -1.949224
C       0.035171   -3.339986   -2.775408
C      -0.769002   -3.551790   -3.978961
O       0.411297   -4.327749   -3.734650
H       0.527909    0.272322    1.578374
H       1.377851    1.506698    0.602756
H      -0.304161    1.779584    1.121560
H       1.516673   -0.772442   -0.398035
H       1.220644   -1.827202   -3.650040
H       2.724207   -3.405639   -2.533702
H       3.004521   -1.779852   -1.889631
H       2.099214   -2.974539   -0.936033
H      -0.332713   -3.744318   -1.829781
H      -1.707894   -4.099518   -3.917183
H      -0.698409   -2.839372   -4.799402
