20

C       0.182283    1.520430    0.159105
C       0.007234    0.002216   -0.026598
C      -1.431400   -0.455241   -0.062228
C      -2.014708   -0.912041   -1.169164
C      -3.437995   -1.374187   -1.247451
C      -4.229705   -1.293107    0.049058
O      -5.398070   -1.630685    0.109519
N      -3.561646   -0.821338    1.140600
C      -2.182813   -0.380854    1.240076
H       1.242931    1.789131    0.144988
H      -0.318626    2.070495   -0.643530
H      -0.230744    1.867666    1.111232
H       0.493956   -0.302843   -0.958767
H       0.537424   -0.517269    0.784154
H      -1.436432   -0.965225   -2.089643
H      -3.999285   -0.802597   -1.998284
H      -3.496035   -2.415718   -1.590414
H      -4.128706   -0.785426    1.975512
H      -1.650628   -0.988306    1.990583
H      -2.156628    0.650458    1.623318
