17

O      -0.055624    1.145804    1.288204
C       0.036295    0.105072    0.372504
C      -0.583637   -1.242289    0.621438
C      -1.151668   -0.333829   -0.457289
N      -2.409139    0.306042   -0.208484
C      -3.601480   -0.295269    0.151058
C      -4.528487    0.710510    0.182593
N      -3.951088    1.915213   -0.150645
C      -2.689886    1.638609   -0.383809
H      -0.979663    1.263702    1.538110
H       0.996070    0.136967   -0.131590
H      -0.059747   -2.139200    0.311046
H      -1.174797   -1.349162    1.524808
H      -0.982061   -0.605303   -1.495278
H      -3.658915   -1.353972    0.340463
H      -5.576744    0.639449    0.430328
H      -1.924128    2.340243   -0.679557
