17

C      -0.184425    1.415946   -0.029215
N       0.031734   -0.021712    0.049982
C       1.401611   -0.503631   -0.144201
C       0.754357   -0.533386    1.191432
C       1.270187    0.182194    2.477274
C       0.848978   -1.084693    3.243719
O      -0.555637   -1.248905    3.038620
C       0.338328   -1.731969    2.021888
H       0.657423    2.014355    0.356563
H      -0.350674    1.695100   -1.074301
H      -1.081109    1.675901    0.541546
H       1.507103   -1.406874   -0.740627
H       2.191485    0.233557   -0.290514
H       2.348205    0.360256    2.465552
H       0.746316    1.090017    2.785896
H       1.283629   -1.515878    4.137055
H       0.256444   -2.774626    1.738810
