21

C      -0.022786    1.515156   -0.345506
C       1.452331    1.628673    0.181728
C       1.372546    0.144207    0.635630
C       1.358428   -0.332524    2.078918
C       0.095045   -1.238193    2.125350
C      -0.929437   -0.567203    1.162174
C      -0.045016    0.012369    0.060361
C       0.616561   -0.955410   -0.943966
O       1.919094   -0.800680   -0.315751
H      -0.734391    2.120915    0.221676
H      -0.168241    1.724322   -1.408698
H       2.209117    1.797890   -0.586535
H       1.596289    2.354089    0.986464
H       2.272258   -0.861285    2.363535
H       1.240489    0.523348    2.753935
H       0.353443   -2.235083    1.751291
H      -0.299728   -1.367990    3.136985
H      -1.687500   -1.273111    0.807044
H      -1.458545    0.240973    1.681194
H       0.269700   -1.996063   -0.898379
H       0.623801   -0.629430   -1.992208
