14

O       0.488414    1.342719    0.318444
C       0.235069    0.032409    0.134041
N       0.289698   -0.440887   -1.101369
C       0.036003   -1.749297   -1.279754
C       0.111084   -2.228463   -2.688503
O      -0.087651   -3.370129   -3.028072
C      -0.277191   -2.619121   -0.242353
C      -0.329218   -2.098886    1.051426
C      -0.071054   -0.754036    1.255563
H       0.675187    1.708972   -0.557420
H       0.370158   -1.427272   -3.411648
H      -0.469420   -3.661207   -0.463011
H      -0.569614   -2.739478    1.893348
H      -0.097922   -0.299170    2.237850
