20

C       0.619372    0.423873    0.543924
O      -0.117370   -0.627862   -0.054686
C      -1.520139   -0.380874   -0.134766
C      -2.113859   -1.452834   -1.060068
C      -2.412467   -2.775496   -0.312389
C      -1.755969   -2.787126    1.063413
O      -2.200510   -1.657472    1.840689
C      -2.148733   -0.436452    1.248010
N      -2.582860    0.613130    1.812627
H       1.669075    0.122151    0.523414
H       0.502604    1.360975   -0.019890
H       0.314299    0.608806    1.581431
H      -1.699014    0.626052   -0.529960
H      -3.028669   -1.061100   -1.512817
H      -1.391142   -1.605849   -1.866023
H      -3.492238   -2.897478   -0.176018
H      -2.064240   -3.640269   -0.885364
H      -2.050694   -3.663243    1.644994
H      -0.665713   -2.760338    0.980843
H      -2.965970    0.380967    2.733045
