19

C       0.334985    1.101725   -0.365270
O      -0.376424    0.139630    0.391045
C       0.424590   -0.508529    1.335092
C      -0.224333   -1.724473    2.042411
C      -0.076883   -2.514777    0.709690
C       1.271190   -1.745406    0.898446
O       2.357708   -1.668352    0.049362
C       1.225482   -2.202561    2.381989
O       2.029707   -1.477031    3.274331
H       1.132910    0.640608   -0.961528
H      -0.384504    1.582022   -1.032766
H       0.784703    1.868839    0.283745
H       0.944183    0.208594    1.978244
H      -1.086068   -1.714099    2.705325
H      -0.036074   -3.605352    0.788822
H      -0.706125   -2.178703   -0.110569
H       2.707062   -2.555254   -0.091867
H       1.316166   -3.286460    2.536750
H       1.763597   -1.699970    4.171664
