16

O       0.568379    0.870582   -1.322584
C       0.412689    1.687615   -0.472880
O      -0.745722    2.323541   -0.115334
C      -0.081235    3.025949    0.986668
C       1.266658    2.397133    0.592162
N       1.851835    1.489577    1.564376
C       3.008108    0.746129    1.035206
C       4.170779    1.580595    0.710333
C       5.098964    2.307683    0.472627
H      -0.174206    4.106692    0.868733
H      -0.476620    2.692848    1.947958
H       1.976812    3.109793    0.145649
H       2.153074    2.024804    2.374170
H       3.290524   -0.007438    1.778464
H       2.677363    0.202772    0.143983
H       5.929587    2.931462    0.250997
