15

O      -0.023894   -0.025677   -0.087393
C      -0.003592    1.176647    0.004243
N      -1.078503    2.005499    0.206766
C      -0.829007    3.425689    0.026229
C       0.693514    3.516010    0.015309
C       1.423244    2.944683    1.184598
C       1.219090    2.084407   -0.063026
C       2.340724    1.690706   -0.859103
N       3.255738    1.396610   -1.501826
H      -2.004923    1.612851    0.255239
H      -1.244231    3.793511   -0.921172
H      -1.266027    4.016597    0.839986
H       1.159729    4.300368   -0.566158
H       2.435133    3.290779    1.358176
H       0.871853    2.657772    2.073706
