14

C       0.089849   -6.314698   -0.051452
C       0.070371   -5.105074   -0.035594
C       0.049172   -3.753000   -0.017235
C       0.030117   -2.534087   -0.001411
C       0.011294   -1.185010    0.017556
C      -0.000088    0.029994    0.044002
C      -0.010405    1.458377    0.042343
C       0.511173    2.205766    1.232190
N       1.269790    2.211971   -0.017114
H       0.106405   -7.376320   -0.066523
H      -0.804198    1.918148   -0.541067
H       0.046185    3.151867    1.493496
H       0.872906    1.618199    2.070480
H       2.042972    1.553189    0.044114
