14

C       0.055695    1.401843    0.007101
O      -0.009804   -0.020058    0.002479
C      -1.215591   -0.589129    0.010146
C      -2.429854    0.036531    0.022113
N      -3.637987   -0.624557    0.029701
N      -3.673304   -1.894699    0.026039
N      -2.494233   -2.555660    0.014179
C      -1.190193   -2.054206    0.004466
O      -0.218777   -2.779115   -0.004417
H       1.116209    1.651997   -0.000577
H      -0.429107    1.820793   -0.882418
H      -0.414618    1.814306    0.907365
H      -2.522329    1.115077    0.026581
H      -2.589451   -3.563780    0.012194
