17

C      -0.066520    1.477747    0.037083
O       1.266006    1.899290   -0.281452
C       2.103117    0.774639   -0.585697
C       1.241884   -0.409390   -0.282772
C       0.021587   -0.014281    0.081369
C      -0.919500   -1.163144    0.342493
C      -0.038569   -2.371206   -0.009549
O       0.392875   -2.422119   -1.368894
C       1.310999   -1.891445   -0.382421
H      -0.366653    1.930001    0.994228
H      -0.774106    1.837624   -0.728273
H       2.417156    0.809949   -1.641394
H       3.014058    0.831879    0.027972
H      -1.256639   -1.208474    1.385819
H      -1.818547   -1.130037   -0.284569
H      -0.220248   -3.336340    0.456169
H       2.220715   -2.466742   -0.242541
