19

C       0.228632    1.126931    0.710828
C       0.058151   -0.040869   -0.240318
O       0.956625   -0.420567   -0.957792
C      -1.299703   -0.743605   -0.214457
C      -1.659459   -1.420115   -1.561791
O      -2.340388   -2.636378   -1.259833
C      -1.949451   -3.053111    0.016409
C      -0.485085   -3.138428    0.357729
C      -1.301229   -1.922335    0.766735
H       1.263440    1.470787    0.703483
H      -0.432571    1.948155    0.408908
H      -0.065809    0.842874    1.727215
H      -2.074726   -0.036158    0.099155
H      -2.323799   -0.811149   -2.180651
H      -0.737747   -1.613647   -2.121190
H      -2.665712   -3.734838    0.459791
H      -0.201751   -3.826100    1.147296
H       0.255445   -3.021961   -0.425505
H      -1.500953   -1.728375    1.813751
