18

C       0.546962    1.314229   -0.254139
C      -0.088012   -0.000886    0.185640
O      -0.206589   -0.907056   -0.940926
C       0.767311   -1.800766   -1.262394
N       0.663044   -2.554382   -2.275798
C       1.985276   -1.885664   -0.366897
C       1.657511   -1.635461    1.092385
O       1.981836   -0.336628    1.595030
C       0.604834   -0.652037    1.376250
H       1.599296    1.179691   -0.511548
H       0.011733    1.710110   -1.120479
H       0.494802    2.045612    0.558220
H      -1.132355    0.177829    0.457449
H      -0.205102   -2.350246   -2.775452
H       2.435723   -2.865227   -0.526836
H       2.717497   -1.134982   -0.686437
H       1.836633   -2.446537    1.794884
H       0.015614   -0.734186    2.287323
