19

C      -0.148968    1.494844    0.060527
C       0.135495    0.030863   -0.004971
O      -0.778464   -0.860711    0.672202
C       0.626854   -0.958008    0.978322
C       1.302659   -1.806874   -0.124279
C       0.432095   -2.920623   -0.767794
C      -0.103932   -1.892094   -1.826264
O      -1.485275   -1.685682   -1.918969
C       0.775119   -0.770090   -1.171532
H       0.737789    2.073003   -0.217865
H      -0.954878    1.760661   -0.632766
H      -0.454634    1.781214    1.070496
H       0.888575   -0.860077    2.026928
H       2.368856   -1.981003    0.014519
H       1.013221   -3.736548   -1.204071
H      -0.342872   -3.341566   -0.123676
H       0.238963   -2.129411   -2.837208
H      -1.785241   -1.518862   -1.015739
H       1.448803   -0.195330   -1.807826
