19

C      -0.038216    1.502468   -0.306460
C       0.010836    0.003399   -0.102194
C       1.190469   -0.747519   -0.608950
N       0.990598   -0.572150    0.841453
C      -1.316637   -0.718911   -0.052693
C      -2.421495   -0.239524    0.919076
C      -3.284181   -0.121860   -0.351760
O      -2.155530   -0.426216   -1.199257
H       0.968585    1.912407   -0.433135
H      -0.622387    1.742474   -1.199279
H      -0.500506    2.012069    0.546648
H       1.079159   -1.767967   -0.965699
H       1.977485   -0.181432   -1.100322
H       1.603139    0.162837    1.187050
H      -1.122453   -1.796241    0.029224
H      -2.744218   -0.966445    1.664855
H      -2.211990    0.709948    1.414103
H      -4.075953   -0.876619   -0.443626
H      -3.708336    0.864040   -0.574096
