18

C       0.053635    1.552919   -0.068063
C       0.036321    0.035783    0.076712
O       0.703523   -0.414142    1.244756
C      -1.395722   -0.556943    0.030597
O      -2.025034   -0.127381   -1.153703
C      -1.370780   -2.102146    0.062258
O      -2.671769   -2.608185   -0.195475
C      -2.159818   -0.090759    1.222417
N      -2.751437    0.239474    2.159673
H       1.086921    1.909046   -0.059723
H      -0.422724    1.857132   -1.002399
H      -0.485393    2.030242    0.758726
H       0.573070   -0.418845   -0.763338
H       0.387536    0.109105    1.991164
H      -2.734547   -0.766729   -1.319518
H      -0.739735   -2.442660   -0.763785
H      -0.950483   -2.465120    1.004237
H      -3.195642   -2.520875    0.609536
