21

C       0.040392    1.533955    0.049550
C       0.031205    0.038235    0.016760
C      -0.357186   -0.744338   -0.990080
C      -0.156853   -2.228859   -0.708208
C       1.079630   -2.761246   -1.475553
C       0.084417   -2.222161    0.840395
C       0.537733   -0.785584    1.183125
C      -1.330697   -3.024034   -1.073662
C      -2.289731   -3.681362   -1.381914
H       1.054682    1.919214    0.216292
H      -0.336730    1.962408   -0.882806
H      -0.574738    1.914688    0.874901
H      -0.731984   -0.400221   -1.947998
H       1.974250   -2.207759   -1.173851
H       1.234803   -3.824288   -1.267821
H       0.949456   -2.641013   -2.554829
H      -0.859644   -2.440658    1.344682
H       0.803350   -2.988901    1.140516
H       1.630922   -0.700585    1.264886
H       0.136285   -0.442624    2.144268
H      -3.140748   -4.256897   -1.649756
