16

C       0.127104    1.578213   -0.205214
C       0.112250    0.067370   -0.146920
C       0.694011   -0.847017   -1.181125
C       1.324601   -0.805577    0.207354
C       2.576506   -0.267465   -0.461690
O       3.679200    0.032624   -0.130250
N       1.931699   -0.292310   -1.743805
C       2.134130    0.374410   -2.936842
O       3.134290    0.970533   -3.239763
H       1.040175    1.965959   -0.662829
H      -0.726070    1.947130   -0.783972
H       0.056466    1.997799    0.802727
H      -0.791007   -0.348246    0.298584
H       0.193626   -1.675682   -1.663807
H       1.304376   -1.543593    0.995939
H       1.251645    0.269078   -3.601732
