23

C      -0.128941    1.556741   -0.268942
C      -0.097631    0.034204   -0.106573
C       0.754498   -0.654745   -1.177159
C       0.813415   -2.193684   -1.071895
C      -0.521512   -2.891126   -1.528508
C       0.099289   -3.130262   -2.928609
C       1.499589   -2.830701   -2.334891
C       1.348573   -2.619722    0.210813
C       1.799792   -2.990105    1.263499
H       0.878581    1.982575   -0.204321
H      -0.546864    1.846315   -1.239900
H      -0.738876    2.027135    0.508579
H       0.293714   -0.226057    0.883280
H      -1.122271   -0.357172   -0.142388
H       0.372901   -0.394489   -2.173561
H       1.781121   -0.269030   -1.129213
H      -0.691204   -3.821227   -0.982656
H      -1.426784   -2.281995   -1.471952
H      -0.046417   -4.119098   -3.367806
H      -0.215615   -2.382957   -3.661236
H       2.161629   -2.167718   -2.898228
H       2.047187   -3.739213   -2.076470
H       2.195055   -3.316058    2.193424
