17

C       0.064342    1.464493    0.046124
C       0.025746   -0.029570   -0.040001
C      -0.066629   -0.764019   -1.161394
C      -0.051423   -2.269428   -1.011382
C      -1.117025   -2.706075    0.030818
C       0.034069   -2.331020    0.998127
O       0.994792   -2.623341   -0.054750
C       0.049764   -0.814784    1.235792
O       0.045237   -0.308694    2.336447
H       1.002900    1.801157    0.500146
H      -0.030564    1.924154   -0.940743
H      -0.737436    1.836035    0.692637
H      -0.154722   -0.314953   -2.146580
H       0.043125   -2.809859   -1.954866
H      -2.055417   -2.151717    0.076875
H      -1.293863   -3.783069    0.022364
H       0.200144   -2.891356    1.919389
