17

N      -0.150081   -1.157205   -0.251768
C      -0.056222   -0.015154   -0.107749
C       0.011247    1.446362    0.012835
O      -0.573789    1.887373    1.253264
C       0.451406    2.655026    1.919495
C       1.538456    1.673607    2.395458
N       2.157732    1.235764    1.108602
C       1.451791    2.014315    0.077287
C       1.143810    3.369541    0.752777
H      -0.550974    1.880058   -0.824613
H      -0.025526    3.253561    2.693908
H       2.260748    2.157600    3.062828
H       1.089980    0.826442    2.921786
H       3.146149    1.455215    1.089772
H       1.973374    2.011128   -0.878569
H       0.468505    4.023516    0.196578
H       2.050384    3.910943    1.032930
