17

O      -0.087167    1.371627   -0.147855
C      -0.052701   -0.037123   -0.014577
C      -1.445177   -0.548140    0.105849
C      -2.617994    0.115442    0.106228
C      -3.673209   -0.979106    0.072125
C      -3.059528   -2.022284    1.056424
C      -1.845997   -2.016124    0.075930
C      -2.966556   -1.858197   -1.040594
O      -3.174644   -2.240819   -2.142487
H       0.818477    1.693458   -0.164755
H       0.432505   -0.517477   -0.883271
H       0.533154   -0.342435    0.870420
H      -2.786257    1.176166    0.001255
H      -4.728480   -0.718437    0.053668
H      -2.851238   -1.648963    2.062376
H      -3.596218   -2.976077    1.080305
H      -1.082331   -2.791279    0.057824
