25

C       0.424305    1.486010   -0.482573
C       0.237640    0.129716    0.213947
C       0.633319    0.213463    1.691159
O       2.004869    0.579495    1.770252
C      -1.194358   -0.362817    0.088809
C      -1.731937   -1.066382   -1.143662
C      -0.884984   -1.373809   -2.361879
C      -1.597192   -1.825618    0.161478
C      -0.607716   -2.957249    0.352490
H       1.440901    1.856907   -0.334310
H       0.231931    1.407209   -1.556376
H      -0.271180    2.229471   -0.073859
H       0.924915   -0.587791   -0.248125
H      -0.005503    0.956296    2.198754
H       0.455530   -0.758079    2.176599
H       2.235414    0.684873    2.697431
H      -1.900314    0.322955    0.556452
H      -2.752551   -0.796545   -1.405843
H       0.153842   -1.600976   -2.111996
H      -1.286123   -2.236703   -2.905712
H      -0.875399   -0.525391   -3.054949
H      -2.537988   -2.007155    0.676744
H       0.351291   -2.773319   -0.136954
H      -0.403801   -3.124503    1.416107
H      -1.006979   -3.893287   -0.054616
