19

C      -0.080381    1.601249    0.092868
C       1.446971    1.405810   -0.048061
O       1.806262    0.776341    1.190267
C       0.816589   -0.298422    1.266669
C       1.487129   -1.639403    1.115070
C       2.110883   -1.917878   -0.027571
C       2.150225   -0.930380   -1.166341
C       1.140075    0.213369   -0.999497
C      -0.034574    0.049858    0.026696
H      -0.428195    2.071814    1.015438
H      -0.556232    2.048705   -0.781961
H       2.156112    2.201701   -0.274870
H       0.272611   -0.207833    2.211145
H       1.451886   -2.347249    1.936786
H       2.612407   -2.870715   -0.175728
H       3.164015   -0.514334   -1.262680
H       1.963630   -1.461362   -2.109075
H       0.771843    0.569158   -1.964398
H      -0.907272   -0.573545   -0.162011
