20

C      -0.085547    1.569627    0.089049
C      -0.031331    0.038451    0.001825
C      -1.445069   -0.553419    0.026750
O      -2.049104   -0.174954    1.253147
C       0.739213   -0.439364   -1.256110
C       2.196076    0.091681   -1.332556
O       2.878291   -0.365619   -2.476123
C       0.799256   -1.903475   -1.335119
N       0.911719   -3.052861   -1.401842
H       0.897359    2.009958    0.274246
H      -0.483270    2.002081   -0.837219
H      -0.746108    1.859219    0.908143
H       0.489322   -0.349005    0.886888
H      -2.017255   -0.170930   -0.835915
H      -1.393434   -1.647315   -0.066883
H      -2.927403   -0.564005    1.290365
H       0.217091   -0.088224   -2.156134
H       2.170628    1.180227   -1.410383
H       2.721485   -0.170780   -0.401640
H       2.979121   -1.322239   -2.406553
