17

C      -0.160603    1.497836    0.202903
C       0.089578    0.015371   -0.008409
C      -1.158908   -0.913548    0.168001
C      -0.473841   -1.567177    1.380033
O      -0.838005   -2.321029    2.233362
C       0.847858   -0.795977    1.133595
N       1.815892   -1.545142    0.344799
C       1.752541   -1.083277   -0.956943
N       0.832105   -0.245968   -1.248693
H       0.783850    2.049467    0.227751
H      -0.762634    1.897497   -0.618616
H      -0.693466    1.680927    1.142132
H      -2.110277   -0.423668    0.396753
H      -1.309151   -1.597428   -0.672699
H       1.288918   -0.285597    1.995822
H       2.677986   -1.875652    0.747204
H       2.461462   -1.473388   -1.681978
