19

C       0.194690    1.165177    0.184671
O      -0.147416   -0.102314   -0.379792
C      -1.362781   -0.577638   -0.005229
O      -2.122166   -0.003159    0.743853
N      -1.588784   -1.780023   -0.602852
C      -2.779671   -2.564864   -0.341466
C      -2.456359   -3.947253    0.175626
C      -3.386946   -5.071975   -0.073718
N      -2.082089   -5.026534   -0.759493
H       1.181473    1.407482   -0.211337
H      -0.529693    1.930331   -0.106292
H       0.226785    1.110896    1.275990
H      -0.847190   -2.166101   -1.164076
H      -3.360036   -1.999731    0.392907
H      -3.393563   -2.651746   -1.250980
H      -1.869290   -3.955313    1.091741
H      -3.492905   -5.863628    0.661760
H      -4.285490   -4.870168   -0.651996
H      -2.221936   -4.715056   -1.719286
