19

O       0.023521    1.414850   -0.025457
C      -0.000669   -0.006400    0.009786
C       0.653752   -0.545823    1.305869
C      -0.536705   -0.752959    2.215307
C      -1.682507   -0.741755    1.531277
C      -1.455679   -0.551410    0.057085
C      -2.489204    0.183496   -0.828557
O      -2.610885   -0.944386   -1.720034
C      -1.780306   -1.756144   -0.874626
H      -0.387260    1.731102    0.788061
H       0.524494   -0.318204   -0.896521
H       1.184139   -1.492274    1.133500
H       1.394064    0.165569    1.686582
H      -0.444554   -0.924403    3.282035
H      -2.670471   -0.902547    1.949923
H      -3.440553    0.413774   -0.329148
H      -2.115586    1.079771   -1.332847
H      -0.929779   -2.191118   -1.415629
H      -2.346098   -2.564401   -0.391819
