23

C      -0.074938    1.543198   -0.094393
C      -0.031657    0.011741    0.013760
C       1.158509   -0.566881   -0.833482
C       2.031441   -0.606350    0.467971
C       0.722893   -0.515839    1.224722
C       0.186109   -1.106431    2.284334
C      -1.312305   -1.176830    2.460915
C      -2.102263   -0.477029    1.331777
C      -1.430480   -0.611179   -0.051699
H       0.913561    1.986518    0.062021
H      -0.420965    1.841360   -1.091212
H      -0.751608    1.984076    0.643704
H       0.945236   -1.573324   -1.202417
H       1.520846    0.051861   -1.659045
H       2.651632   -1.489688    0.639835
H       2.662963    0.283475    0.562140
H       0.803120   -1.642305    3.003468
H      -1.594009   -2.239796    2.505282
H      -1.614129   -0.762464    3.432227
H      -3.119568   -0.881065    1.297163
H      -2.208082    0.587274    1.571849
H      -2.053695   -0.138488   -0.820708
H      -1.344999   -1.673352   -0.313268
