19

C      -0.007446    1.544881    0.024684
C       0.016508    0.032539    0.023383
C       1.324566   -0.677331   -0.253464
C       0.728699   -0.687958    1.148212
C       0.450761   -2.166914    1.337230
C      -0.015074   -2.793194   -0.011465
O       0.683605   -4.051672    0.276005
C       1.612622   -2.995355    0.678949
C       1.275879   -2.152198   -0.603726
H       0.926582    1.954002    0.424698
H      -0.135638    1.940148   -0.988877
H      -0.828201    1.927774    0.640908
H      -0.889877   -0.425119   -0.365404
H       2.202550   -0.090417   -0.499286
H       1.157724   -0.109048    1.958491
H       0.005021   -2.541212    2.257825
H      -1.016293   -2.862875   -0.437621
H       2.579592   -3.293031    1.087758
H       1.631498   -2.512207   -1.568200
