19

C       0.269383    1.426951    0.030292
O      -0.272477    0.182652   -0.390722
C       0.565389   -0.512209   -1.259984
C       1.770412   -1.255418   -0.649392
O       2.732887   -0.990880    0.000938
O       1.366376   -2.479284   -1.097731
C       0.091082   -1.937805   -1.650603
C      -1.085148   -2.471889   -0.855545
C       0.011581   -2.229581   -3.137381
H       1.217563    1.291060    0.563106
H       0.436082    2.095546   -0.827682
H      -0.465276    1.879155    0.699101
H       0.855983    0.103366   -2.125708
H      -0.973120   -2.250120    0.206814
H      -2.013788   -2.009688   -1.202452
H      -1.162744   -3.554863   -0.988310
H      -0.062093   -3.306779   -3.313164
H      -0.873152   -1.750855   -3.568801
H       0.897816   -1.857266   -3.659087
