20

C      -0.078273    1.495286    0.024278
C      -0.201297   -0.009672    0.177879
O       0.917724   -0.471834    0.933281
C       0.905408   -1.848497    1.149745
C       2.056559   -2.362448    2.075708
C       2.954338   -1.302247    2.693558
N       0.997934   -2.892218    2.952353
C      -0.065414   -2.389914    2.247359
O      -1.253720   -2.381821    2.439023
H       0.854406    1.757237   -0.483681
H      -0.915361    1.884224   -0.562902
H      -0.085793    1.983280    1.002957
H      -1.133244   -0.282743    0.688815
H      -0.205983   -0.504427   -0.807588
H       0.818221   -2.407749    0.205541
H       2.654912   -3.158119    1.617107
H       2.361664   -0.488082    3.115583
H       3.574896   -1.737243    3.483992
H       3.618926   -0.881908    1.932993
H       1.041201   -3.382060    3.834513
