16

C       0.042460    1.566051    0.181834
N       1.493922    1.516392   -0.107931
C       1.356007    0.164468   -0.706543
C       2.421301   -0.849188   -0.317330
N       2.323734   -1.342643    1.049653
C       1.234782   -1.204755    1.669387
O       0.060891   -0.638538    1.281582
C      -0.004115    0.030423    0.023790
H      -0.218664    1.953551    1.171214
H      -0.567567    2.070267   -0.581056
H       1.846933    2.235453   -0.729171
H       1.209125    0.177163   -1.796582
H       2.370582   -1.713211   -0.994862
H       3.416050   -0.408778   -0.454813
H       1.122353   -1.583191    2.683802
H      -0.842504   -0.398679   -0.526053
