19

C      -0.160086    1.429738   -0.082456
C       0.016498   -0.086443   -0.121851
C       1.072060   -0.580421   -1.152876
C       1.671679   -1.841417   -0.549993
O       2.618355   -1.598099    0.480949
C       1.273135   -1.921417    0.884008
C       0.425679   -0.716063    1.240035
C       1.131834   -3.238967    1.558229
O       0.224494   -3.530692    2.296809
H       0.776471    1.924700    0.199395
H      -0.464982    1.821148   -1.058789
H      -0.924503    1.720763    0.645509
H      -0.942295   -0.538154   -0.406399
H       0.625240   -0.777113   -2.131725
H       1.869757    0.157394   -1.296380
H       1.866730   -2.723291   -1.157077
H       1.022531   -0.020672    1.840316
H      -0.438227   -1.018219    1.836578
H       1.952148   -3.948396    1.310680
