16

C       0.283106    1.526552   -0.054363
C       0.064332    0.039424    0.079308
O       0.853806   -0.761462   -0.849703
C       1.382222   -1.583976    0.194155
C       2.699531   -1.053441    0.771842
O       1.980063   -0.172856    1.685198
C       0.709003   -0.705179    1.282112
C      -0.125361   -1.138247    2.383267
N      -0.813643   -1.489981    3.242737
H       1.316940    1.786988    0.180798
H       0.057595    1.839591   -1.077895
H      -0.381902    2.069094    0.625177
H      -0.996207   -0.225584   -0.020684
H       1.237037   -2.652637    0.034704
H       3.292375   -1.788210    1.328193
H       3.327306   -0.502219    0.066790
