22

C      -0.142636    1.515697   -0.009688
C      -0.127680   -0.008747    0.124863
C       0.840387   -0.505281    1.204431
C       0.912099   -2.029378    1.307134
O       1.334873   -2.634547    0.079194
C       1.813341   -2.494845    2.455396
N       1.898353   -3.941873    2.473228
C       1.815640   -4.681044    3.607874
O       1.724098   -4.232396    4.732180
H       0.847403    1.900870   -0.278980
H      -0.845737    1.838820   -0.783397
H      -0.437775    1.996026    0.929887
H      -1.138067   -0.368024    0.359490
H       0.141399   -0.468671   -0.832325
H       1.851190   -0.115648    1.005579
H       0.549786   -0.100149    2.182672
H      -0.093870   -2.434682    1.471598
H       2.161920   -2.212779   -0.183419
H       2.813041   -2.047260    2.339283
H       1.423999   -2.173865    3.424643
H       1.923383   -4.400277    1.574987
H       1.844414   -5.767703    3.391557
