19

C       0.054727    1.415339    0.093817
N       0.139716   -0.036558    0.079395
C       0.592546   -0.607253   -0.955312
N       1.043507   -0.026299   -2.142158
C       1.585929   -0.913664   -3.061825
O       2.004373   -0.610667   -4.151117
C       1.560373   -2.289755   -2.401583
C       0.720344   -2.120762   -1.117930
C       1.274631   -2.806360    0.130901
H       0.998441    1.902664   -0.197343
H      -0.733423    1.784229   -0.579250
H      -0.193634    1.753782    1.102481
H       0.999049    0.960641   -2.344353
H       1.171284   -3.032002   -3.101045
H       2.595558   -2.571379   -2.176831
H      -0.293558   -2.497213   -1.302562
H       2.300775   -2.480791    0.331979
H       0.665140   -2.551037    1.000198
H       1.279395   -3.893562    0.007551
