18

C      -0.018989    1.576273    0.121308
C      -0.071915    0.045466    0.158707
C       0.831042   -0.539345    1.243370
C       1.053373   -2.085168    1.275799
O       2.472067   -1.898704    1.048647
C       2.328959   -0.525782    0.988536
N       3.170775    0.373406    0.764160
C       0.730096   -2.759949    2.585228
O       1.532043   -3.027556    3.437749
H       1.005298    1.923290   -0.037091
H      -0.647884    1.965374   -0.684581
H      -0.377516    2.005481    1.063236
H      -1.100198   -0.293301    0.336893
H       0.228355   -0.363381   -0.813881
H       0.576947   -0.125178    2.224585
H       0.582272   -2.621228    0.442799
H       4.104687   -0.011984    0.614076
H      -0.358315   -2.970959    2.707823
