19

C       0.026578    1.554432   -0.082992
C      -0.014061    0.038742   -0.039608
C      -1.285276   -0.590325   -0.478513
C      -1.889682   -1.516644    0.262423
C      -1.258399   -2.004575    1.541230
O       0.167108   -1.908299    1.517462
C       0.673436   -0.660629    1.117057
C       1.314204   -0.702141   -0.250055
O       1.381226   -1.922632   -0.900565
H       0.998927    1.934680    0.246939
H      -0.142648    1.919465   -1.102569
H      -0.741047    1.993050    0.564457
H      -1.716596   -0.249970   -1.416586
H      -2.839743   -1.953879   -0.028752
H      -1.657524   -1.454645    2.409317
H      -1.474080   -3.065092    1.704874
H       1.105790   -0.079823    1.930050
H       2.186395   -0.081723   -0.439288
H       0.997914   -2.566954   -0.287643
