23

C       0.086265    1.512343   -0.111696
C       0.019549   -0.016890   -0.017362
O       0.727566   -0.489109    1.133185
C      -1.393669   -0.537627   -0.041808
C      -1.978093   -1.215083   -1.031525
C      -3.393057   -1.619539   -0.700867
C      -3.721095   -0.768401    0.556244
C      -4.672448   -1.435835    1.547330
C      -2.333372   -0.396473    1.142068
H       1.128202    1.842932   -0.074046
H      -0.365035    1.866479   -1.043387
H      -0.452333    1.982543    0.719876
H       0.563225   -0.444279   -0.867239
H       0.357785   -0.045963    1.904498
H      -1.488870   -1.491178   -1.960534
H      -4.100306   -1.442199   -1.519607
H      -3.446245   -2.696602   -0.478963
H      -4.181532    0.163004    0.203418
H      -4.249063   -2.373620    1.925647
H      -4.871658   -0.789072    2.408760
H      -5.634761   -1.670370    1.079580
H      -2.038345   -1.094666    1.939845
H      -2.332910    0.604325    1.591955
