17

C       0.079854    1.460373   -0.125208
N      -0.044069    0.008759    0.053809
C       0.646622   -0.506294    1.231583
C       0.818324   -2.065224    1.186190
N       2.256366   -1.843993    1.031741
C       2.212409   -0.479846    1.020626
O       3.040013    0.376554    0.875994
C       0.187638    0.023288    2.510692
C      -0.218772    0.481184    3.546419
H       1.134591    1.716305   -0.244403
H      -0.452402    1.743112   -1.037343
H      -0.322560    2.045667    0.715333
H      -1.028058   -0.233922    0.131282
H       0.539711   -2.590074    2.103157
H       0.335552   -2.514023    0.313634
H       3.014236   -2.478193    0.827489
H      -0.564328    0.888279    4.464648
