19

C      -0.003777    1.460416   -0.230194
C       1.415967    1.974735    0.158905
C       2.044819    0.690447    0.646086
O       3.419435    0.437056    0.878739
C       2.492211    0.321639    1.988729
C       2.031635   -1.080967    2.327742
C       1.467340   -1.653764    0.995829
C       1.232412   -0.453560    0.066903
O      -0.086264    0.078800    0.148275
H      -0.807392    1.987978    0.289359
H      -0.169511    1.564432   -1.311985
H       1.950612    2.372455   -0.708792
H       1.388430    2.753972    0.923649
H       2.642355    1.061319    2.771458
H       2.830705   -1.702676    2.742769
H       1.249919   -1.004732    3.091959
H       2.196510   -2.320343    0.529268
H       0.546528   -2.223468    1.139604
H       1.489695   -0.682377   -0.979536
