18

C      -0.008243    1.569955   -0.084304
C       1.293337    0.799591   -0.024555
C       2.025727    0.684698    1.275507
C       1.316290    0.669069    2.604748
C       1.992975   -0.590279    2.096149
C       0.601983   -1.298345    2.025883
C      -0.069485   -0.061331    2.524345
N      -0.388734   -0.594204    1.216887
C      -0.021412    0.070363   -0.009135
H      -0.305702    2.128800    0.796927
H      -0.290408    2.023462   -1.027740
H       1.906751    0.759694   -0.919059
H       2.988206    1.188284    1.316499
H       1.604945    1.298133    3.436814
H       2.885132   -1.075660    2.468542
H       0.435407   -2.342052    2.265581
H      -0.864691    0.068926    3.249724
H      -0.340355   -0.483818   -0.886114
