18

C       0.026304    1.431462    0.007214
N       0.090766   -0.022521    0.029203
C       0.568912   -0.636792   -0.955681
O       1.068306   -0.071148   -2.121878
C       1.530685   -1.188382   -2.910115
C       0.468218   -2.254490   -2.636667
C       0.742985   -2.133255   -1.118677
C       2.271311   -2.376172   -1.125357
O       2.705108   -1.704788   -2.332230
H       0.639751    1.827683    0.824519
H       0.359535    1.885026   -0.932592
H      -1.004876    1.742941    0.206890
H       1.736362   -0.841697   -3.919793
H      -0.537551   -1.951884   -2.930805
H       0.722812   -3.226730   -3.062457
H       0.169535   -2.733985   -0.418543
H       2.779812   -1.939766   -0.261329
H       2.516856   -3.442657   -1.191095
