14

O      -0.060636    1.383122    0.053650
C       0.052481    0.005394    0.047809
C       0.748863   -0.953161    1.010284
N       0.070207   -1.920888    0.045286
C      -1.149198   -0.966194   -0.066737
C      -1.108531   -1.025214   -1.597500
C       0.354116   -0.973700   -1.143925
H       0.820135    1.766574   -0.024523
H       1.842336   -1.015541    0.990002
H       0.372147   -1.022494    2.035814
H      -1.987466   -1.066614    0.624305
H      -1.439765   -1.961609   -2.052875
H      -1.489123   -0.152056   -2.130601
H       1.277268   -1.077083   -1.717452
