19

C       0.011387    1.502460    0.042254
C      -0.031817   -0.026825   -0.005858
C       0.711188   -0.558836   -1.251767
O       0.868182   -1.961312   -1.210859
C       1.574617   -2.362941   -0.046375
C       0.845024   -1.887548    1.202662
O       0.666733   -0.475236    1.164617
C      -1.426148   -0.501415    0.003933
C      -2.571660   -0.865404    0.010030
H       1.051293    1.839465    0.059280
H      -0.494176    1.929313   -0.827757
H      -0.487007    1.857025    0.946689
H       0.153007   -0.326462   -2.162208
H       1.694346   -0.061120   -1.293280
H       1.637764   -3.454769   -0.075196
H       2.596057   -1.947803   -0.061403
H      -0.128419   -2.391604    1.281286
H       1.427274   -2.097955    2.104656
H      -3.582183   -1.192566    0.014266
