21

C       0.008917    1.497313   -0.058515
C       0.041026   -0.019212    0.009262
O       0.734457   -0.498666   -1.139045
C       0.783379   -1.876743   -1.250709
C       1.381317   -2.242892   -2.605009
C       1.748061   -3.703841   -2.628334
C       1.829801   -4.421841   -1.511009
C       1.608953   -3.803879   -0.157623
O       1.592145   -2.389146   -0.198950
H       1.024978    1.901905   -0.065020
H      -0.499333    1.833817   -0.966772
H      -0.520642    1.904512    0.808038
H       0.545820   -0.362833    0.919767
H      -0.981300   -0.431450    0.019544
H      -0.232394   -2.312741   -1.151456
H       0.660106   -2.009585   -3.396923
H       2.257974   -1.606395   -2.779737
H       1.932091   -4.163216   -3.595507
H       2.060810   -5.483359   -1.533562
H       0.673654   -4.193072    0.287315
H       2.419011   -4.077127    0.528768
