13

N      -0.018507    1.360593    0.164142
C       0.042619   -0.013593    0.049179
N      -1.047889   -0.762724    0.013278
N      -0.622568   -2.095778    0.031943
C       0.723627   -2.135057   -0.021476
C       1.211967   -0.839704    0.025934
N       2.576423   -0.877176    0.033840
N       2.952567   -2.111746   -0.007838
N       1.816874   -2.920911   -0.032567
H       0.750168    1.849308   -0.270785
H      -0.918523    1.745302   -0.087204
H      -1.293063   -2.799086   -0.220029
H       1.932151   -3.918173   -0.084003
