21

C       0.070201    0.150864   -1.327696
C      -0.390106    0.012574    0.125706
C       0.686372   -0.568995    1.062796
C       0.255037   -0.484005    2.536144
O       0.147569    0.888103    2.874552
C       0.974301   -2.025073    0.737631
O       0.102231   -2.870985    0.712815
C       2.408671   -2.436287    0.453476
O       2.517755   -3.806710    0.222934
H       0.325581   -0.819848   -1.767074
H      -0.718605    0.590437   -1.945292
H       0.951482    0.797207   -1.407402
H      -0.680770    0.988516    0.523682
H      -1.271109   -0.637036    0.178670
H       1.613674    0.009540    0.959166
H      -0.700768   -1.014081    2.655957
H       0.997717   -0.990650    3.173539
H      -0.213094    0.952326    3.763644
H       2.758995   -1.846210   -0.411866
H       3.032323   -2.117648    1.306619
H       1.607778   -4.141260    0.282081
