17

O       0.122215    1.353317   -0.371338
C       0.075882    0.022573    0.118562
C      -1.333220   -0.484069    0.207241
C      -2.375830   -0.127749    1.279542
C      -2.963714   -1.582859    1.139943
C      -4.359650   -1.711533    0.745075
N      -5.461192   -1.786557    0.400693
C      -1.908678   -1.864316    0.040944
N      -1.986104   -0.893802   -1.034662
H      -0.240356    1.332525   -1.264236
H       0.662789   -0.663792   -0.508847
H       0.534873    0.049502    1.112401
H      -1.952484    0.037740    2.271999
H      -3.050990    0.696014    1.036164
H      -2.783211   -2.170039    2.043281
H      -1.442758   -2.824822   -0.145466
H      -2.920623   -0.510418   -1.168715
