17

C       0.025667    1.396769   -0.119590
O      -0.027700    0.007911    0.118602
C      -1.323563   -0.569447    0.013526
C      -1.761511   -0.750456   -1.441815
C      -1.247908   -1.911772    0.753835
C      -0.995493   -1.750586    2.237420
O      -1.582478   -2.359172    3.096247
H       1.050992    1.716182    0.082041
H      -0.221351    1.657521   -1.158315
H      -0.655169    1.948726    0.546747
H      -2.049993    0.085405    0.525826
H      -1.804482    0.207167   -1.968157
H      -1.059956   -1.403176   -1.970767
H      -2.758298   -1.199651   -1.488575
H      -2.159234   -2.498800    0.613822
H      -0.405866   -2.475417    0.327780
H      -0.205760   -1.010922    2.489384
