18

C      -0.044925    1.580025   -0.078004
C       0.027193    0.054626   -0.067744
O       0.821592   -0.438059   -1.141338
C       0.696752   -0.500229    1.206217
N      -0.020086   -0.171824    2.419719
C      -0.322014   -1.285844    3.189128
O      -0.822203   -1.276938    4.292782
C       0.108367   -2.449604    2.358082
C       0.698883   -2.009829    1.246552
H       0.957350    2.014116    0.000113
H      -0.498063    1.935161   -1.010407
H      -0.662095    1.951841    0.745267
H      -0.991801   -0.360202   -0.112894
H       0.458687   -0.099223   -1.965235
H       1.730513   -0.119828    1.222708
H      -0.001573    0.740588    2.843906
H      -0.051777   -3.469974    2.675793
H       1.114944   -2.588137    0.433905
