13

N      -0.039495    1.272114    0.343840
C      -0.021872    0.063629   -0.035706
O       1.145912   -0.556638   -0.458166
C       1.112853   -1.863881   -0.858397
C      -0.044551   -2.564919   -0.849160
N      -1.242384   -2.006682   -0.440224
C      -1.220087   -0.776083   -0.061705
C       2.365587   -2.377737   -1.264337
C       3.428425   -2.823387   -1.611759
H       0.889479    1.691845    0.292000
H      -0.060620   -3.598360   -1.167519
H      -2.138351   -0.297373    0.267575
H       4.366443   -3.216976   -1.918477
