14

O       0.110163    0.005048    0.128827
C       0.109174    1.193052    0.232207
O       1.098844    1.959798   -0.288763
C       0.979376    3.364233   -0.093415
C       1.410860    3.903824    1.258541
C       2.307594    4.059400    0.060403
C      -0.090712    3.989567   -0.819529
C      -0.994712    4.501132   -1.424858
H      -0.668854    1.784518    0.746501
H       0.887614    4.772640    1.638993
H       1.686722    3.163849    2.001095
H       3.177283    3.416771   -0.008018
H       2.411107    5.037034   -0.393269
H      -1.790227    4.952278   -1.965278
