19

O       0.403606    1.276709    0.303503
C       0.239193   -0.045279   -0.148432
C      -1.225509   -0.494762   -0.071634
C      -2.143519    0.116129   -1.142376
C      -2.263677    1.569039   -1.130550
C      -2.420615    2.759794   -1.148717
C      -1.413683   -2.016080    0.148944
C      -1.804114   -1.619700    1.585791
O      -1.717933   -0.210488    1.271345
H      -0.130944    1.347133    1.105517
H       0.601998   -0.090636   -1.181963
H       0.847148   -0.748373    0.446339
H      -1.783783   -0.221601   -2.124283
H      -3.141747   -0.319835   -1.011985
H      -2.528878    3.815818   -1.153121
H      -2.220272   -2.460690   -0.436567
H      -0.513664   -2.623941    0.041538
H      -2.811906   -1.898642    1.911304
H      -1.087332   -1.909306    2.363061
