16

O      -0.428179    1.558576   -0.581132
C       0.069471    0.340207   -0.025388
C      -1.032466   -0.677449    0.362888
C      -1.064112   -1.735077   -0.783973
C       0.284759   -1.522538   -1.460350
C       0.903950   -0.427934   -1.025002
C      -1.278988   -3.101401   -0.320842
C      -1.449375   -4.228165    0.062136
H      -0.765042    1.357864   -1.461427
H       0.638131    0.661885    0.852446
H      -0.760985   -1.179305    1.294776
H      -1.992978   -0.180602    0.513366
H      -1.863718   -1.499528   -1.502378
H       0.649620   -2.207705   -2.216917
H       1.856529   -0.056030   -1.385160
H      -1.602332   -5.222831    0.400805
