17

C       0.034849    1.523399    0.026000
O       1.210937    1.406424    0.858463
C       1.398402    0.039475    0.426995
C      -0.058305   -0.021121   -0.108350
C      -1.029358   -0.662382    0.820456
C      -2.011555   -1.615446    0.632390
C      -2.587569   -1.800104    1.908530
N      -2.017287   -1.027856    2.827784
N      -1.075820   -0.347409    2.144266
H      -0.788322    2.032479    0.535910
H       0.257881    2.035524   -0.919510
H       2.160757   -0.035337   -0.359911
H       1.656107   -0.627733    1.254766
H      -0.188670   -0.413492   -1.117043
H      -2.269048   -2.102330   -0.294497
H      -3.392121   -2.462700    2.192245
H      -0.491935    0.318950    2.624719
