19

C      -0.147093    1.471472   -0.044626
C      -0.011641   -0.026571    0.070382
N       1.339802   -0.589567   -0.140027
C       0.721706   -0.694152    1.174288
C       1.236466   -0.101905    2.490564
C       0.349742   -1.143287    3.237181
C       0.237528   -1.951790    1.910972
O      -0.970704   -2.566300    1.540147
H       0.727433    1.971240    0.379598
H      -0.229579    1.773580   -1.094100
H      -1.040959    1.828490    0.479487
H      -0.840279   -0.600087   -0.345796
H       1.279945   -1.483405   -0.624362
H       2.306120   -0.282188    2.628678
H       1.031699    0.953493    2.681702
H       0.775309   -1.654449    4.102452
H      -0.620638   -0.721113    3.518395
H       0.992840   -2.745099    1.870447
H      -1.666327   -1.902031    1.597187
