15

C      -0.009901    1.478666   -0.030095
N      -0.011453    0.033246    0.029497
C      -0.058503   -0.834260   -1.044187
N      -0.048777   -2.115593   -0.709258
C       0.008023   -2.051203    0.639604
C       0.033047   -0.774128    1.146499
C       0.087694   -0.890047    2.568804
C       0.091600   -2.240502    2.788550
O       0.043559   -2.976725    1.626779
H       0.900646    1.887974    0.419129
H      -0.052917    1.789984   -1.075627
H      -0.877342    1.892838    0.493777
H      -0.098400   -0.457819   -2.055755
H       0.120973   -0.127947    3.330635
H       0.125990   -2.822351    3.694391
