16

C      -0.075664    1.369695   -0.045509
C       1.341019    0.809579    0.018701
C       1.867894    0.507977    1.445971
N       1.028008   -0.559546    2.047488
C       0.187657   -0.860839    1.150814
O      -0.653311   -1.910766    1.052036
C      -1.170027   -1.860977   -0.297484
O      -0.327160   -1.015572   -1.066637
C       0.160724   -0.107442   -0.116372
H      -0.528990    1.809857    0.838934
H      -0.342186    1.843734   -0.985073
H       2.030999    1.050656   -0.780179
H       2.902454    0.147205    1.420030
H       1.856922    1.406718    2.073802
H      -1.145136   -2.867610   -0.718634
H      -2.196802   -1.470997   -0.258971
