16

C      -0.393844    0.866554    0.012941
O       0.696111   -0.039528    0.111489
C       1.005158   -0.655039   -1.087139
C       1.606370   -2.019919   -1.083619
N       0.999541   -2.864828   -0.050584
C      -0.311204   -2.670574   -0.548298
O      -1.374422   -3.075207   -0.176914
C       0.192880   -1.797550   -1.691621
O      -0.277725   -1.696940   -2.973156
H      -0.178550    1.674364   -0.700826
H      -1.311748    0.352342   -0.299449
H      -0.538927    1.295903    1.005973
H       1.375573    0.012656   -1.871027
H       2.534087   -2.304826   -1.561739
H       1.183374   -2.686416    0.931198
H      -0.418441   -2.584583   -3.322980
