15

C      -0.036128    1.425069   -0.152243
N       0.097273   -0.016386   -0.061858
C       0.647652   -0.518175    0.966366
N       0.744772   -1.932369    0.988429
N       1.272741   -2.663247    1.945946
N       1.757149   -2.084725    2.972733
C       1.681724   -0.675880    2.991921
N       2.219566   -0.160720    4.112384
N       1.172937    0.101627    2.080440
H       0.470454    1.780005   -1.058169
H      -1.095962    1.684878   -0.264272
H       0.368588    1.965120    0.710911
H       0.376392   -2.445277    0.199138
H       2.596797   -0.781352    4.806104
H       2.220126    0.834030    4.252527
