12

O      -0.155825    1.344534    0.010144
C       0.030321    0.015869    0.002361
C       1.126459   -0.795403   -0.006951
N       0.685949   -2.131992   -0.011845
C      -0.669700   -2.118879   -0.005647
N      -1.721123   -2.919948   -0.005037
N      -2.777231   -2.061283    0.004102
N      -2.439314   -0.805888    0.009467
N      -1.071534   -0.824621    0.003010
H       0.698302    1.789698    0.009666
H       2.172608   -0.543166   -0.010431
H       1.266575   -2.950240   -0.018875
