21

C      -0.194287    1.570799    0.234090
C       0.028455    0.065891    0.145367
C       0.901704   -0.511715   -1.024342
C       1.798788   -1.215690    0.006393
C       2.406939   -0.204391    0.931347
C       0.973164   -0.612291    1.151564
C       2.326126   -2.595505   -0.145562
C       3.757569   -2.884632   -0.332182
O       3.121408   -3.106458    0.928244
H       0.751852    2.121809    0.234926
H      -0.786039    1.930240   -0.615238
H      -0.732949    1.834397    1.151043
H      -0.941160   -0.442152    0.151846
H       0.344288   -1.202714   -1.662461
H       1.406968    0.219639   -1.664991
H       3.103617   -0.621006    1.651151
H       2.663194    0.789751    0.572391
H       0.667303   -1.083428    2.078721
H       1.614779   -3.320764   -0.547496
H       4.066724   -3.784275   -0.862623
H       4.464490   -2.056964   -0.355631
