17

C      -0.105979    1.518356    0.075351
C       0.005481    0.003519   -0.013902
C      -1.291549   -0.757514   -0.155345
C      -1.377023   -1.787446    0.687613
C      -0.164741   -1.916210    1.581101
C       0.775671   -0.833269    1.048617
O       1.676809   -1.334102    0.000878
C       1.088840   -0.551105   -0.962518
O       1.411803   -0.429007   -2.099472
H       0.869029    1.980458    0.257295
H      -0.496082    1.923247   -0.863527
H      -0.785919    1.812093    0.880845
H      -2.036384   -0.479443   -0.891901
H      -2.212947   -2.475926    0.740834
H      -0.414161   -1.755799    2.637532
H       0.312806   -2.901076    1.514662
H       1.355100   -0.297235    1.801189
