21

C      -0.017640    1.512542   -0.165177
C       0.069187    0.011630    0.019118
C       1.405199   -0.702063    0.061584
O       2.596111    0.042428    0.132525
C       0.556013   -0.658025    1.300539
C       1.081908    0.171863    2.459155
O       2.219418   -0.456396    3.063383
C      -0.083539   -1.966407    1.734781
O       0.848531   -2.856257    2.320917
H       0.901694    2.013407    0.146349
H      -0.180524    1.753504   -1.221481
H      -0.849896    1.943421    0.401056
H      -0.717925   -0.538171   -0.492736
H       1.505835   -1.658740   -0.448547
H       2.839597    0.328635   -0.753879
H       1.331194    1.191543    2.153035
H       0.325088    0.235290    3.248431
H       2.912597   -0.441096    2.390791
H      -0.917220   -1.747238    2.425473
H      -0.515319   -2.483955    0.869322
H       1.441371   -2.315322    2.863092
