16

N       0.227040    1.478789    0.216747
C       0.070240    0.050356    0.060677
C      -1.344682   -0.574236    0.217162
C      -2.548940    0.343744    0.174040
O      -3.739139   -0.392275   -0.030289
O      -1.177085   -1.250488   -1.083598
C       0.021367   -0.602916   -1.319192
N       0.745462   -0.559598   -2.341032
H       1.209985    1.713485    0.297509
H      -0.116039    1.971233   -0.601675
H       0.791166   -0.456376    0.707316
H      -1.459726   -1.323718    1.004551
H      -2.647645    0.863090    1.131860
H      -2.410127    1.109389   -0.605359
H      -3.615646   -0.899672   -0.840989
H       0.355083   -1.112088   -3.106508
