21

C       0.064232    1.493430   -0.090516
C       0.087972    0.037113   -0.074096
C       0.103416   -1.167047   -0.050638
C       0.098141   -2.633385   -0.060874
C      -1.345482   -3.146572    0.154777
C       0.648719   -3.149375   -1.411089
C       0.974132   -3.204195    1.058675
C       2.068892   -2.477307    1.707880
O       0.811715   -2.672645    2.367652
H       0.970155    1.904348   -0.549859
H      -0.793794    1.869649   -0.658622
H      -0.007491    1.900231    0.924168
H      -2.007564   -2.772145   -0.630494
H      -1.366835   -4.241733    0.132188
H      -1.726745   -2.810821    1.121895
H       1.668077   -2.792128   -1.580922
H       0.657339   -4.244759   -1.427623
H       0.022224   -2.799983   -2.235894
H       1.035591   -4.295034    1.028206
H       2.906948   -3.030386    2.129970
H       2.275038   -1.452254    1.409305
