22

C      -0.082281    1.579148    0.010292
C      -0.036392    0.096578    0.399130
C      -1.370691   -0.587810    0.181215
C      -1.775599   -1.129084   -1.154657
C      -1.515898   -2.097089   -0.017957
C      -0.305933   -2.974661   -0.109689
O       0.668315   -2.704918   -0.798666
N      -0.379583   -4.114518    0.641519
C       0.694622   -5.084935    0.695967
H       0.884217    2.061506    0.186443
H      -0.329813    1.700304   -1.049514
H      -0.836458    2.123604    0.590319
H       0.733547   -0.423012   -0.175990
H       0.246598    0.005338    1.456278
H      -2.181535   -0.163737    0.771037
H      -2.797373   -1.008232   -1.496473
H      -1.019149   -1.136992   -1.932199
H      -2.383936   -2.547860    0.454575
H      -1.199086   -4.267936    1.204287
H       0.349941   -6.078559    0.388352
H       1.469919   -4.746128    0.007977
H       1.120728   -5.159389    1.703402
