17

C      -0.167802    1.564868    0.107871
C      -0.067403    0.072767    0.012403
N       1.143398   -0.559308   -0.467813
C       0.708545   -0.931011    0.892498
C       1.615058   -0.657164    2.022974
O       1.552194   -1.226533    3.085292
C      -0.489281   -1.854157    0.879487
N      -1.641127   -1.092295    1.426542
C      -1.239260   -0.901319    0.012905
H       0.805605    2.009364    0.326195
H      -0.521343    1.983842   -0.841567
H      -0.876204    1.846039    0.891784
H       0.968921   -1.316410   -1.125927
H       2.379230    0.121631    1.812637
H      -0.489327   -2.936727    0.865587
H      -2.445856   -1.722158    1.438738
H      -1.921875   -1.107743   -0.803162
