15

C      -0.020900    1.497686   -0.033401
C      -0.002032   -0.004047   -0.006845
N      -0.034920   -0.629518   -1.145745
N      -0.017316   -1.981365   -1.104733
C       0.032043   -2.828703    0.003753
N       0.047098   -4.109923   -0.001634
C       0.066780   -2.059387    1.243064
F       0.114715   -2.757392    2.360806
C       0.050859   -0.712815    1.247090
H       0.873569    1.911349    0.446432
H      -0.061707    1.850182   -1.064849
H      -0.888721    1.890311    0.508967
H      -0.044605   -2.409161   -2.018340
H       0.017861   -4.482879   -0.951881
H       0.077684   -0.172235    2.186070
