22

C      -0.077079    1.523370    0.005881
C      -0.018577    0.005242   -0.027194
O      -1.336087   -0.498762    0.029335
C      -1.394614   -1.908940   -0.002948
C      -2.856276   -2.333994    0.045078
C      -3.039466   -3.854664   -0.014869
C      -4.507296   -4.265810    0.101334
O      -2.439724   -4.409927   -1.186234
H       0.931291    1.946153   -0.034359
H      -0.647916    1.903918   -0.846016
H      -0.562341    1.868163    0.923478
H       0.483947   -0.343085   -0.946037
H       0.572900   -0.376942    0.822839
H      -0.917972   -2.300724   -0.914482
H      -0.845529   -2.336372    0.854965
H      -3.313856   -1.943225    0.961604
H      -3.390457   -1.866876   -0.794055
H      -2.477941   -4.311289    0.810626
H      -5.100374   -3.819053   -0.706746
H      -4.602369   -5.352907    0.034379
H      -4.939200   -3.934853    1.051275
H      -2.928310   -4.075249   -1.946956
