21

C      -0.517292    1.323612    0.313939
O       0.836682    1.045532   -0.067675
C      -0.058175   -0.045086    0.064193
C       0.147960   -1.197771    1.052884
C      -0.474539   -2.153758   -0.007342
C      -1.973343   -2.483549    0.120468
C      -2.534240   -2.218047   -1.288508
C      -1.813792   -0.928713   -1.747750
C      -0.423355   -1.008294   -1.079346
H      -0.653066    1.669083    1.338731
H      -1.112585    1.847626   -0.433246
H       1.211326   -1.383871    1.227916
H      -0.360486   -1.129303    2.018968
H       0.114894   -3.045254   -0.230838
H      -2.158421   -3.502699    0.471958
H      -2.449267   -1.804355    0.839644
H      -2.264655   -3.048231   -1.953059
H      -3.624707   -2.129483   -1.309471
H      -1.755720   -0.850513   -2.836717
H      -2.360477   -0.047240   -1.394185
H       0.396613   -1.092576   -1.796668
