17

C      -0.088826    1.552625    0.164656
C       0.036638    0.057773   -0.001277
C      -1.241638   -0.854156    0.079922
C      -0.511491   -1.786453    1.106406
O      -0.418193   -3.155565    0.851506
C       0.776546   -0.953487    0.925384
O       1.532835   -1.454450   -0.226672
C       0.970183   -0.504489   -1.068077
O       1.225824   -0.319288   -2.212301
H       0.889687    2.031484    0.268774
H      -0.581877    1.987451   -0.710843
H      -0.688490    1.800663    1.045992
H      -2.109778   -0.336203    0.493553
H      -1.532296   -1.333061   -0.857323
H      -0.926181   -1.670036    2.111786
H       0.208761   -3.265881    0.124830
H       1.439581   -0.712668    1.755265
