21

C       0.833991    2.055835    2.996231
C       0.455961    0.652385    2.565852
O       0.009322    0.534453    1.180228
C       0.798293   -0.647803    1.016117
C       2.260567   -0.350403    1.062183
C       2.904829    0.889187    0.480158
C       4.147583    1.331891    1.243859
O       4.660747    2.490815    0.603680
C       1.470449   -0.477040    2.364573
H      -0.027382    2.722911    2.885506
H       1.118615    2.050066    4.054236
H       1.662185    2.467075    2.417732
H      -0.355600    0.286065    3.210838
H       0.332263   -1.498299    0.530678
H       2.845188   -1.259257    0.915525
H       3.193258    0.687276   -0.558743
H       2.184571    1.709758    0.445124
H       3.885546    1.536624    2.294084
H       4.891075    0.517385    1.250729
H       5.450423    2.771082    1.075183
H       1.718149   -1.216814    3.114654
