20

C       0.660157    1.242527    0.152166
C       0.198215   -0.156228   -0.096395
C      -0.270558   -0.781108   -1.237944
C      -0.466514   -0.171287   -2.594272
C      -0.543281   -2.138983   -0.886414
C      -0.248518   -2.306194    0.446464
C      -0.346883   -3.485004    1.354324
O       0.841017   -3.687412    2.123713
N       0.193234   -1.090736    0.914985
H       1.688013    1.274530    0.535872
H       0.639930    1.822599   -0.772632
H       0.025865    1.764767    0.879884
H      -0.095438    0.856680   -2.636789
H       0.059300   -0.739268   -3.370800
H      -1.524977   -0.145626   -2.881346
H      -0.926766   -2.905369   -1.544930
H      -1.136686   -3.353885    2.104803
H      -0.609590   -4.372397    0.760948
H       1.568826   -3.770985    1.497647
H       0.554461   -0.951079    1.843631
