20

C       0.296135    1.608473    0.093549
C       0.203431    0.104520   -0.024902
C       0.633023   -0.709008   -1.228915
C       1.942683   -0.178772   -1.836435
N       2.563483   -0.304833   -0.506379
C       1.364566   -0.843842    0.108824
C       3.635596    0.279796    0.102912
C       4.611068    0.969501   -0.839152
O       3.799001    0.215604    1.308357
H       1.241756    1.991579   -0.298190
H      -0.516557    2.096019   -0.455444
H       0.230108    1.916148    1.141750
H      -0.695917   -0.318111    0.420754
H      -0.015515   -1.421182   -1.719643
H       2.384461   -0.860706   -2.571337
H       1.924431    0.835281   -2.252272
H       1.421456   -1.659988    0.817404
H       4.196502    1.921659   -1.189272
H       5.533426    1.170894   -0.294706
H       4.827722    0.359250   -1.721079
