16

O       0.660630    0.686318   -1.872479
C       0.226866    1.384913   -0.977736
C       0.977918    1.665613    0.272858
C       1.826042    0.531708    0.840739
C       2.497036    1.678361    0.171956
C      -1.145713    1.988994   -1.120382
C      -2.147705    1.843031   -0.044319
O      -1.501297    3.085782   -0.274101
H       0.513847    2.356457    0.964368
H       1.873100    0.447998    1.920391
H       1.778948   -0.405662    0.298238
H       2.898232    1.511781   -0.821099
H       3.020444    2.409407    0.776878
H      -1.493358    2.051589   -2.149690
H      -3.201246    1.798545   -0.314419
H      -1.874488    1.333393    0.878232
