18

C       0.310864    1.526488   -0.103451
C       0.188511    0.077754   -0.051649
C       0.078877   -1.119959    0.005326
C      -0.028706   -2.550147    0.031131
N      -0.499919   -3.192631    1.275478
C      -1.358002   -3.268424    0.074988
C      -2.613431   -2.574733    0.094154
C      -3.677279   -2.011104    0.075900
C      -4.957607   -1.320297    0.070369
H       1.347673    1.833101   -0.281078
H      -0.303163    1.950663   -0.905751
H      -0.012891    1.982502    0.838641
H       0.744843   -3.073374   -0.529107
H      -0.016692   -4.079260    1.400986
H      -1.372211   -4.217313   -0.459260
H      -5.018494   -0.598796   -0.752046
H      -5.789944   -2.023857   -0.042565
H      -5.112321   -0.771174    1.005692
