13

N      -0.071549    1.418587   -0.029627
C      -0.049883    0.022144    0.014989
C      -1.069806   -0.901122    0.110680
N      -0.632102   -2.224529    0.126023
C       0.652716   -2.073795    0.038894
O       1.754706   -2.876446   -0.005529
C       2.786784   -1.987720   -0.101054
N       2.460803   -0.735807   -0.121284
N       1.090008   -0.795020   -0.031114
H       0.420789    1.845176    0.748389
H       0.315915    1.791145   -0.890307
H      -2.122067   -0.669120    0.170594
H       3.784448   -2.389983   -0.151865
