23

C      -0.132363    1.592775    0.053170
C       0.021134    0.065294    0.067545
C       0.865918   -0.377019    1.270583
C      -1.363214   -0.609175    0.016325
C      -1.369379   -2.125674   -0.167084
C      -1.133428   -3.054286    1.072549
C      -2.377230   -3.850253    0.650670
O      -2.822629   -4.918210    0.955545
C      -2.767900   -2.789979   -0.388731
H       0.843725    2.088440    0.034551
H      -0.698203    1.931037   -0.821280
H      -0.662749    1.941113    0.947762
H       0.559937   -0.225466   -0.846443
H       1.069695   -1.451039    1.260243
H       1.830425    0.141415    1.278028
H       0.358361   -0.141295    2.213947
H      -1.927931   -0.352972    0.925661
H      -1.923944   -0.167045   -0.818472
H      -0.690372   -2.403425   -0.980282
H      -0.200812   -3.620608    1.134850
H      -1.291849   -2.543183    2.029042
H      -3.594539   -2.166081   -0.027535
H      -3.021327   -3.154887   -1.387449
