19

O       0.004801    1.427321   -0.310566
C       0.041322    0.026355   -0.093685
C      -1.410414   -0.471706    0.022379
C      -1.490807   -2.001824    0.075385
C      -2.908408   -2.547221   -0.177066
C      -2.960538   -4.049695   -0.030206
O      -3.360110   -4.814952   -0.869540
C      -2.073662    0.196165    1.217796
O      -2.609862   -0.398666    2.120900
H       0.904798    1.765167   -0.287479
H       0.529054   -0.497358   -0.929759
H       0.596609   -0.226916    0.823387
H      -1.926776   -0.090658   -0.871908
H      -0.805525   -2.421137   -0.670872
H      -1.143633   -2.341273    1.058218
H      -3.585165   -2.119549    0.572850
H      -3.271611   -2.281382   -1.174414
H      -2.585350   -4.423652    0.952075
H      -2.014159    1.303001    1.213997
