20

C       0.200008    1.465560    0.191590
C      -0.077626   -0.037101    0.119702
C       0.483221   -0.772876    1.353991
O       1.894243   -0.672623    1.436552
C      -1.580412   -0.308928   -0.024359
O      -2.223378    0.151798    1.152967
O       0.470194   -0.679761   -1.055781
C       1.705599   -0.369518   -1.491849
N       2.326484   -1.193329   -2.226004
H       1.218367    1.675208    0.524532
H       0.027215    1.941964   -0.778309
H      -0.492197    1.902017    0.915344
H       0.071753   -0.318677    2.258549
H       0.157225   -1.821017    1.321185
H       2.273226   -1.314133    0.826673
H      -1.947531    0.208919   -0.922733
H      -1.726662   -1.387944   -0.175162
H      -3.165353   -0.019804    1.071058
H       2.064290    0.616266   -1.186572
H       3.213440   -0.786270   -2.517993
