18

N       0.149935    1.040731    0.756181
C      -0.070624    0.283075   -0.359945
O       0.712996    0.255990   -1.289618
C      -1.370645   -0.530245   -0.341297
C      -2.039182   -0.598617   -1.702431
C      -2.262413   -1.853888   -2.093098
C      -1.733972   -2.845587   -1.113874
C      -0.229858   -2.813395   -0.918180
C      -1.118301   -2.011780   -0.002251
H       1.037938    1.508320    0.841282
H      -0.445801    0.990214    1.563459
H      -2.053455   -0.091093    0.399998
H      -2.255810    0.293163   -2.277900
H      -2.730900   -2.141947   -3.027344
H      -2.275196   -3.763400   -0.912126
H       0.236768   -3.693579   -0.487681
H       0.367424   -2.279372   -1.647685
H      -1.198637   -2.319184    1.033516
