21

C      -0.143336    1.430285   -1.541975
O      -0.077015    0.072641   -1.176108
C      -0.924094   -0.248078   -0.094028
C      -0.760283   -1.715451    0.226746
C       0.682950   -2.201824    0.338869
O       0.838768   -3.367329    1.121323
C       1.046122   -3.105265    2.491427
C      -1.860580   -2.421156    0.899593
O      -1.632704   -2.593923   -0.497165
H       0.547133    1.578421   -2.375441
H      -1.156861    1.716088   -1.864002
H       0.151894    2.091963   -0.711714
H      -0.661387    0.360568    0.790211
H      -1.977643   -0.044818   -0.342219
H       1.032201   -2.444626   -0.668871
H       1.316184   -1.387139    0.719893
H       1.159255   -4.070367    2.991587
H       1.958877   -2.511301    2.653845
H       0.201996   -2.568204    2.950201
H      -1.633744   -3.288948    1.512950
H      -2.767803   -1.877887    1.166179
