17

O       0.353255    1.192575    0.226052
C       0.029832   -0.141995    0.002672
C      -1.369579   -0.666173    0.034639
C      -2.526165    0.304357    0.191035
C      -2.607666    1.371178   -0.863518
C      -1.912306    1.359435   -2.009667
C      -0.986129    0.260226   -2.375118
O      -0.588258    0.129227   -3.518112
C      -0.585520   -0.677287   -1.290998
H      -0.250983    1.757346   -0.269688
H       0.805357   -0.771149    0.426173
H      -1.520280   -1.631558    0.507880
H      -3.478887   -0.243320    0.186776
H      -2.473926    0.783364    1.178841
H      -3.312868    2.177907   -0.672540
H      -2.048700    2.125100   -2.766902
H      -0.189456   -1.615172   -1.663241
