18

O       0.508318    0.815252    0.830688
C      -0.128196   -0.142644    0.037552
C      -1.553461    0.202273   -0.418274
C      -1.760300   -0.731456   -1.612821
C      -2.735120   -1.850471   -1.546255
N      -2.973945   -0.689921   -2.427093
C      -0.412504   -0.857440   -2.325905
C       0.594279   -0.366721   -1.293539
O       1.756073   -0.086539   -1.457952
H       1.406360    0.892896    0.473445
H      -0.157166   -1.125763    0.546304
H      -2.305252    0.071867    0.363857
H      -1.571414    1.251745   -0.740310
H      -2.531182   -2.781797   -2.068561
H      -3.335439   -1.957269   -0.646102
H      -3.659062   -0.067222   -2.004230
H      -0.179514   -1.872875   -2.660120
H      -0.360796   -0.211416   -3.209416
