20

C       0.009298    1.450660   -0.204335
C      -0.005846   -0.034951    0.040581
O       1.269139   -0.710367    0.012600
C       0.563604   -0.650405    1.243895
C       1.092106   -0.015040    2.537974
C       0.456548   -1.202945    3.336185
C       0.148692   -1.897201    2.001793
C      -0.802011   -2.956171    1.607056
N       0.647967   -3.228265    1.661424
H       0.804983    1.933878    0.368054
H       0.171820    1.664412   -1.265852
H      -0.949895    1.894446    0.084246
H      -0.795634   -0.582596   -0.477542
H       2.184051   -0.007331    2.573634
H       0.722114    0.985607    2.773085
H       1.134575   -1.755839    3.988287
H      -0.435696   -0.919219    3.899915
H      -1.389538   -3.466681    2.365971
H      -1.287031   -2.879201    0.636325
H       1.041165   -3.188212    0.721340
