17

N       0.697847   -0.814608    1.027435
C       0.370279    0.190100    0.557227
C      -0.049629    1.454942   -0.045900
C      -0.903686    2.323931    0.933295
C       0.067432    3.321228    1.543655
C       1.361758    2.794900    2.113245
C       1.328540    3.340975    0.707040
C       1.165336    2.356325   -0.439275
H      -0.633930    1.193259   -0.932858
H      -1.665084    2.858535    0.355519
H      -1.424913    1.705691    1.669596
H      -0.344371    4.235220    1.956429
H       1.849541    3.408131    2.863023
H       1.484167    1.728815    2.272508
H       1.848928    4.269555    0.501422
H       2.059560    1.760236   -0.641954
H       0.917355    2.898935   -1.357664
