14

O      -0.014921    1.396683   -0.051733
C      -0.025348    0.012257   -0.033797
C      -0.441260   -0.723571    1.221445
N      -1.146482    0.102916    2.163713
C      -2.419130    0.461701    1.695385
O      -3.234570    1.135346    2.278658
N      -2.526034   -0.079724    0.422097
C      -1.343966   -0.761604   -0.002474
H      -0.138654    1.696548    0.859752
H       0.769683   -0.438993   -0.622049
H       0.097879   -1.581414    1.604626
H      -1.002109    0.029342    3.156719
H      -3.159376    0.360457   -0.224912
H      -1.476608   -1.653184   -0.605829
