20

O      -0.032019    1.439969    0.090253
C       0.040713    0.025991   -0.021152
C      -1.379334   -0.527815   -0.009932
C      -1.403564   -2.054180   -0.143402
C      -2.848552   -2.556130   -0.232903
C      -3.797300   -1.961829    0.804947
O      -4.859781   -2.488338    1.082565
N      -3.417086   -0.771211    1.360747
C      -2.115758   -0.122740    1.270365
H       0.862985    1.790036    0.116751
H       0.539614   -0.275968   -0.955419
H       0.614535   -0.410001    0.813764
H      -1.913719   -0.090851   -0.864424
H      -0.838614   -2.376545   -1.025517
H      -0.905580   -2.500909    0.727996
H      -3.272084   -2.305714   -1.214158
H      -2.913918   -3.642718   -0.139394
H      -4.069440   -0.426422    2.050656
H      -1.490524   -0.385290    2.139814
H      -2.253129    0.961160    1.292819
