15

O       0.051635    1.420985    0.074924
C      -0.018729    0.032249    0.274849
C      -1.424463   -0.484860   -0.093928
O      -1.738433   -0.070192   -1.413842
C      -1.522300   -1.971768    0.073049
N      -1.463977   -2.773307   -0.956074
O      -1.530903   -4.042912   -0.457681
N      -1.630933   -4.032153    0.902174
C      -1.625753   -2.774552    1.246050
H      -0.321502    1.577352   -0.802579
H       0.723080   -0.515710   -0.330815
H       0.199847   -0.162134    1.330789
H      -2.150314    0.008440    0.563312
H      -1.443842   -0.759513   -2.022539
H      -1.699559   -2.481244    2.281716
