14

C       0.020799    1.534561    0.043723
C      -0.038318    0.037925    0.062450
C      -1.309396   -0.830531   -0.035681
C      -0.633132   -1.774032    1.003340
O      -1.036841   -2.693388    1.655460
C       0.623714   -0.942147    1.029453
N       1.107267   -0.740545   -0.353614
H       1.031702    1.877858    0.276435
H      -0.246494    1.919266   -0.947086
H      -0.676336    1.964211    0.769930
H      -2.209240   -0.387359    0.403221
H      -1.552485   -1.222614   -1.028242
H       1.322665   -0.794152    1.844174
H       0.866644   -1.516696   -0.968140
