22

C      -0.172904    1.589493   -0.125599
C      -0.086949    0.062598   -0.042671
C       0.807911   -0.534737   -1.135072
C       0.826060   -2.069031   -1.166790
C       1.444387   -2.701791    0.083929
N      -0.496169   -2.660094   -1.575179
C       0.088714   -3.388518   -2.733460
C       1.414366   -2.661410   -2.466233
O       2.464593   -2.570039   -3.028449
H       0.815300    2.049598   -0.014559
H      -0.579524    1.910221   -1.090970
H      -0.819039    1.994650    0.659446
H       0.285685   -0.223372    0.948482
H      -1.089556   -0.370965   -0.138906
H       0.455000   -0.179074   -2.110806
H       1.839333   -0.175932   -1.025180
H       0.840596   -2.482118    0.970368
H       1.514596   -3.790271   -0.015170
H       2.453242   -2.314351    0.255197
H      -0.885675   -3.279121   -0.873071
H       0.174960   -4.478287   -2.626311
H      -0.390271   -3.173297   -3.694999
