21

C       0.216149    1.671840   -0.069631
C      -0.018651    0.166311    0.119548
C       0.408240   -0.621818   -1.136511
C       0.709918   -0.337980    1.335470
N       1.890238    0.083235    1.744423
C       2.199229   -0.674046    2.847833
C       1.195976   -1.564905    3.109930
N       0.240609   -1.349382    2.135946
C      -1.021865   -2.054331    2.020561
H       1.284281    1.877829   -0.171099
H      -0.299720    2.029092   -0.966608
H      -0.149671    2.240436    0.789930
H      -1.093792    0.001990    0.270517
H       1.477707   -0.482524   -1.321456
H       0.226358   -1.695697   -1.023797
H      -0.143087   -0.275708   -2.017056
H       3.122141   -0.532824    3.389743
H       1.059289   -2.311921    3.874684
H      -1.870609   -1.376856    2.158618
H      -1.117683   -2.539665    1.044845
H      -1.067843   -2.823876    2.792496
