19

O       0.026433    0.054529   -0.082907
C      -0.005873    1.253057   -0.011108
C      -1.204210    2.196691    0.034016
C      -1.252797    2.791630    1.459693
C       0.043552    3.560750    1.750457
N       1.212443    2.751178    1.376183
C       1.160699    2.251704   -0.011265
C       0.656786    3.263217   -1.065324
N      -0.837146    3.243031   -0.950658
H      -2.143608    1.709472   -0.231662
H      -2.108372    3.468612    1.546560
H      -1.383995    1.976443    2.180172
H      -0.000979    4.521519    1.213792
H       0.117082    3.789469    2.818392
H       2.064458    3.282991    1.517825
H       2.113631    1.787550   -0.264230
H       1.043261    4.273534   -0.886001
H       0.984523    2.955084   -2.065115
H      -1.244483    3.014219   -1.848564
