17

O      -0.022802    1.349174   -0.163919
C      -0.015454   -0.058777   -0.057394
C       0.434978   -0.549273    1.341706
O       1.435343   -0.214701    1.920383
C      -0.750051   -1.376431    1.790390
C      -1.884624   -0.341366    1.449746
C      -1.438027   -0.639783   -0.018319
O      -2.251942   -0.420556   -1.118498
C      -1.152292   -2.085415    0.452061
H       0.785641    1.672855    0.252383
H       0.581374   -0.517568   -0.860908
H      -0.689611   -1.891042    2.745528
H      -2.873738   -0.750279    1.663499
H      -1.789256    0.678915    1.825839
H      -2.143415    0.501580   -1.380969
H      -0.395958   -2.668806   -0.080438
H      -2.071432   -2.662683    0.566403
