14

C      -0.000525    1.525276    0.120221
O       1.285427    2.018817   -0.356943
C       2.256672    1.185070   -0.773138
N       2.249349   -0.092239   -0.829027
C       1.060756   -0.625728   -0.391122
C      -0.037173    0.032820    0.066166
C      -0.997634   -0.972555    0.393761
C      -0.393501   -2.160185    0.104246
O       0.867531   -1.965090   -0.377350
H      -0.125449    1.921177    1.136672
H      -0.765683    1.996554   -0.510624
H       3.127778    1.753250   -1.085864
H      -1.994278   -0.844715    0.787355
H      -0.708888   -3.186932    0.179852
