21

C      -0.138947    1.570062   -0.109389
C       0.003682    0.050522    0.013325
C      -1.370752   -0.559895   -0.338272
C       1.284369   -0.611691   -0.658098
C       2.412232    0.136533    0.042995
C       2.019374    0.166015    1.325699
C       0.686013   -0.562102    1.306491
C       1.163015   -1.793488    0.387613
O       0.349024   -2.898038    0.120114
H       0.800772    2.098674    0.048307
H      -0.516335    1.831704   -1.105496
H      -0.868448    1.943730    0.618553
H      -1.482841   -0.697915   -1.421017
H      -1.580173   -1.506423    0.163246
H      -2.168056    0.123424   -0.028923
H       1.353931   -0.794382   -1.732686
H       3.322028    0.499829   -0.413512
H       2.527243    0.560962    2.194303
H       0.136191   -0.704786    2.237499
H       2.119394   -2.205627    0.713219
H      -0.352479   -2.650965   -0.485837
