21

C      -0.141233    1.605953   -0.150928
C      -0.040961    0.091105   -0.033755
C      -1.411952   -0.597945    0.143190
C      -1.485189   -0.992619    1.669229
C      -0.059675   -0.809887    2.306484
C       0.777969   -0.604693    1.080789
C       2.117771   -0.141754    0.465853
C       1.172937   -0.673286   -0.664748
O       0.869239   -1.820013    0.200815
H       0.827865    2.109517   -0.175226
H      -0.671293    1.873403   -1.072329
H      -0.717103    2.027170    0.681715
H      -2.231858    0.072013   -0.129553
H      -1.494239   -1.493179   -0.472189
H      -2.217177   -0.377517    2.200425
H      -1.812916   -2.029262    1.771435
H      -0.015998    0.076185    2.948259
H       0.251136   -1.672784    2.900798
H       2.380220    0.916395    0.505652
H       2.969333   -0.792215    0.665945
H       1.419907   -0.880255   -1.708419
