16

C      -0.103792    1.427932   -0.044378
C       0.019333   -0.055103    0.016720
O      -1.126759   -0.866487   -0.288563
C      -0.392428   -1.979915    0.260376
C       0.593317   -1.013576    1.006399
C       1.266424   -0.882182   -0.361061
C       0.709521   -2.233729   -0.831473
C       1.581460   -3.354911   -0.520228
N       2.261548   -4.255950   -0.269549
H       0.836076    1.898208    0.258642
H      -0.336881    1.753189   -1.063411
H      -0.898022    1.777961    0.621505
H      -1.006995   -2.783256    0.657238
H       0.960953   -0.933738    2.018870
H       2.224361   -0.441735   -0.602793
H       0.334219   -2.312444   -1.856619
