20

C       0.286411    1.500190    0.164370
C      -0.284073    0.126235   -0.203562
C       0.423849   -0.495476   -1.385434
N       1.729255   -1.144631   -1.100878
C       0.594602   -1.952615   -1.543215
C       0.079454   -3.168110   -0.727279
C       0.054140   -3.951673   -2.053334
O      -0.813644   -3.245981   -2.948398
C       0.540841   -2.788054   -2.813341
H       1.348676    1.419083    0.414428
H       0.189437    2.206430   -0.668012
H      -0.234773    1.928529    1.025835
H      -0.198302   -0.551868    0.652487
H      -1.353209    0.210930   -0.436852
H       0.356214    0.078384   -2.310590
H       2.380375   -0.994294   -1.868851
H       0.836919   -3.520249   -0.023034
H      -0.887545   -3.072361   -0.228170
H       0.192489   -5.012446   -2.224938
H       1.140705   -2.714581   -3.714704
