23

C       0.808099    1.781925    0.359563
C       0.377298    0.313797    0.260638
C       0.829936   -0.576097    1.434945
C       0.025807   -0.269987    2.701307
O       0.625030   -0.960892    3.789511
C       0.732425   -2.077073    1.101699
C       1.855773   -2.578166    0.170209
C       1.723949   -3.990994   -0.164788
C       1.590942   -5.156358   -0.428579
H       1.898584    1.867410    0.421531
H       0.480699    2.344507   -0.520358
H       0.388271    2.279821    1.239080
H      -0.716245    0.252969    0.169270
H       0.773411   -0.100575   -0.673489
H       1.879198   -0.343143    1.668863
H       0.012962    0.813327    2.890767
H      -1.019288   -0.590541    2.553335
H       0.074183   -0.835530    4.567233
H       0.773249   -2.648946    2.032213
H      -0.239717   -2.289334    0.638804
H       1.874454   -1.992496   -0.757672
H       2.826410   -2.407823    0.654500
H       1.484745   -6.185434   -0.666275
