23

C      -0.005339    1.470688    0.216467
C      -0.180643   -0.033167    0.443602
C       0.997557   -0.662936    1.194043
C       0.821842   -2.157779    1.414597
O       1.972657   -2.654056    2.098906
C       1.907344   -4.031535    2.334955
C       2.839269   -4.552357    3.397468
C       1.355935   -4.433408    3.680827
O       0.885486   -3.424077    4.521077
H       0.896732    1.679712   -0.368993
H      -0.858356    1.893992   -0.322631
H       0.087159    2.006336    1.167613
H      -1.108012   -0.213160    1.003027
H      -0.307596   -0.536830   -0.523834
H       1.929500   -0.498306    0.639536
H       1.125123   -0.172609    2.167671
H      -0.084576   -2.367072    2.001845
H       0.716371   -2.679049    0.449562
H       1.710514   -4.634429    1.448498
H       3.282234   -5.532733    3.259414
H       3.483901   -3.819871    3.872401
H       0.762173   -5.336163    3.777652
H       1.226118   -2.595862    4.156910
