20

N      -3.068546   -0.088962   -2.009458
C      -2.217835   -1.103874   -1.697068
O      -1.996095   -2.011730   -2.484275
C      -1.593472   -1.010756   -0.301903
C      -1.100149   -2.345335    0.238799
C       0.303734   -2.745106   -0.193404
O       0.548527   -2.591125   -1.571966
C      -1.504493   -2.750789    1.638160
C      -2.124269   -3.436152    0.448651
H      -3.433318   -0.045336   -2.947223
H      -3.207074    0.698924   -1.401573
H      -0.758091   -0.301231   -0.367004
H      -2.327689   -0.565865    0.379725
H       1.036054   -2.113661    0.331414
H       0.486107   -3.781954    0.139684
H      -0.297087   -2.700113   -2.038292
H      -0.782470   -3.303885    2.230405
H      -2.115506   -2.064928    2.215944
H      -3.160842   -3.218018    0.213738
H      -1.828179   -4.456305    0.229373
