24

C       0.098419    1.495111    0.092496
N       0.347111    0.069539    0.012453
C       0.304119   -0.621947   -1.164697
O       0.077241   -0.087571   -2.236876
C       0.538241   -2.126876   -1.035316
C       1.366030   -2.675466   -2.203665
C       1.399383   -4.209377   -2.307845
C       2.106064   -4.636374   -3.601651
C       2.058953   -4.872355   -1.089822
H       0.965848    2.030892    0.494400
H      -0.097536    1.844881   -0.921723
H      -0.771246    1.716278    0.721885
H       0.542046   -0.436369    0.859734
H       0.997770   -2.364279   -0.069514
H      -0.452677   -2.601994   -1.036408
H       0.949983   -2.251918   -3.123039
H       2.394642   -2.295418   -2.129942
H       0.358257   -4.561434   -2.361244
H       3.152651   -4.308391   -3.601770
H       2.100722   -5.725352   -3.717147
H       1.622082   -4.200806   -4.481806
H       2.084268   -5.961352   -1.202267
H       3.093986   -4.528090   -0.972480
H       1.526584   -4.651722   -0.159346
