16

O       0.080376    1.364757   -0.064441
C       0.055369   -0.051798   -0.000690
C      -1.411838   -0.462392    0.091638
C      -2.170246    0.017118   -1.146616
O      -3.358815    0.202043   -1.172618
C      -1.551146   -1.968227    0.248679
C      -2.773172   -2.703836   -0.088966
O      -1.632679   -2.735097   -0.958327
H       0.981146    1.650016   -0.243543
H       0.505306   -0.506148   -0.898003
H       0.607430   -0.429987    0.873257
H      -1.864100    0.025821    0.963444
H      -1.541414    0.172129   -2.048905
H      -0.894190   -2.402966    1.004918
H      -2.986279   -3.639699    0.424684
H      -3.634564   -2.161197   -0.470047
