17

C      -0.147866    1.621171   -0.097600
C       0.045047    0.114315   -0.005191
C       0.774632   -0.500936   -1.202428
C       2.153150   -0.908022   -0.596133
O       3.140539   -1.191211   -1.225471
C       1.951739   -1.017328    0.887446
C       0.775727   -0.457954    1.171988
C      -0.545570   -0.662479    1.857848
O      -1.179447   -0.513584    0.548439
H       0.784745    2.114832   -0.388259
H      -0.905705    1.845020   -0.854979
H      -0.483130    2.041325    0.854471
H       0.273364   -1.426167   -1.506604
H       0.884902    0.140382   -2.078977
H       2.605176   -1.604434    1.519268
H      -0.718740   -1.645957    2.304900
H      -0.866578    0.122680    2.553528
