18

C      -0.028723    1.595836   -0.010409
C       0.024202    0.067167    0.053593
C       0.741428   -0.589962   -1.180936
C       1.552118   -1.839353   -0.683144
C       1.657633   -1.521380    0.772179
C       0.839357   -0.504892    1.178591
N       0.968501   -0.319708    2.516761
N       1.842330   -1.181628    2.965286
N       2.264440   -1.928666    1.903831
H       0.979837    2.017780   -0.074478
H      -0.596559    1.932418   -0.884143
H      -0.506302    2.004984    0.884419
H      -1.006225   -0.309688    0.118643
H       0.039777   -0.850561   -1.977189
H       1.445417    0.138496   -1.596867
H       1.001907   -2.773932   -0.851014
H       2.512628   -1.937808   -1.198753
H       2.953040   -2.645737    2.063790
