16

N      -0.274939    1.376132    0.125113
C      -0.160007   -0.054515    0.084707
C      -0.686130   -0.991744    1.143443
C      -1.409303   -0.876806   -0.202493
C      -2.777217   -0.176855   -0.296700
O      -3.066668    0.657725    0.812407
C      -1.277770   -1.976319   -1.120513
N      -1.191768   -2.857757   -1.865986
H      -1.103838    1.652070    0.643185
H       0.532604    1.775445    0.592670
H       0.734194   -0.384371   -0.435442
H      -0.160051   -1.916043    1.352802
H      -1.191206   -0.542104    1.991108
H      -2.780581    0.476695   -1.173884
H      -3.558555   -0.933665   -0.438646
H      -3.336714    0.099837    1.548608
