17

C      -0.186611    1.368155   -0.104438
O      -0.080584   -0.041239   -0.090114
C       0.765798   -0.553403   -1.096444
C       0.632385   -2.090765   -1.016369
C       1.246477   -2.644508    0.281972
O      -0.737431   -2.442691   -1.122047
C       1.327001   -2.670771   -2.183538
N       1.910536   -3.101408   -3.082170
H       0.787501    1.844812    0.075927
H      -0.581802    1.732257   -1.063876
H      -0.874134    1.648383    0.696240
H       0.442629   -0.208790   -2.089596
H       1.809636   -0.243654   -0.940639
H       0.780896   -2.143580    1.133724
H       1.056290   -3.717338    0.347089
H       2.326009   -2.471537    0.315644
H      -1.206255   -1.780375   -0.595774
