14

O      -0.150954    1.298001    0.041649
N      -0.031092   -0.095377   -0.061419
C      -1.155300   -0.668752   -0.001265
C      -2.606877   -0.231422    0.057377
O      -3.068915   -0.774536   -1.225386
C      -2.906783   -2.061007   -0.621715
C      -3.153425   -1.547635    0.796685
O      -2.048636   -2.262303    1.356522
C      -1.439555   -2.150208    0.024966
H       0.765570    1.587753   -0.028292
H      -2.892435    0.796246    0.252625
H      -3.355896   -2.904276   -1.141141
H      -4.071526   -1.535409    1.379628
H      -0.670665   -2.884458   -0.193960
