23

C       0.700793    1.414317   -0.412868
C       0.031675    0.114202    0.046862
O      -0.100767   -0.739720   -1.108199
C       0.688007   -1.913081   -1.126617
C       0.379485   -2.801763    0.105870
C       1.396621   -1.894836    0.851531
C       2.100566   -1.690566   -0.521103
C       0.681481   -0.602773    1.287268
C       1.598832    0.298659    2.123193
H       1.752160    1.275063   -0.677588
H       0.177380    1.773876   -1.302869
H       0.639557    2.190569    0.355537
H      -0.998657    0.371050    0.321872
H       0.588011   -2.327029   -2.132227
H      -0.656230   -2.818456    0.456338
H       0.749121   -3.822965   -0.021073
H       1.970364   -2.322761    1.678196
H       2.765517   -2.524499   -0.761363
H       2.613736   -0.749853   -0.730012
H      -0.143157   -0.912733    1.942580
H       2.486056    0.614328    1.565770
H       1.083232    1.199597    2.469640
H       1.941926   -0.244699    3.009881
