15

N      -0.192751    1.532140   -0.061169
C       0.063517    0.088136   -0.005320
C      -1.289712   -0.722270   -0.026661
O      -1.392291   -1.490376   -1.269909
C      -0.182265   -1.381932   -1.842769
N       0.340954   -1.910224   -2.933526
N       1.574631   -1.353458   -2.903055
N       1.858194   -0.534039   -1.887557
C       0.724060   -0.546801   -1.196253
H       0.688824    2.030777    0.026359
H      -0.555495    1.774798   -0.980734
H       0.592531   -0.105997    0.932273
H      -1.342569   -1.436308    0.799086
H      -2.144371   -0.045236    0.022251
H       2.258046   -1.575733   -3.606984
