17

C       0.077531    1.398480    0.025365
O      -0.153121    0.012207   -0.120548
C       0.552929   -0.583371   -1.182691
C       2.069127   -0.766022   -0.925264
C       2.464178   -1.995111   -1.731459
O       3.556393   -2.322672   -2.104143
C       1.150317   -2.787684   -2.027823
O       1.101105   -3.812389   -2.650201
C       0.009951   -2.004679   -1.400575
H       1.118785    1.622116    0.298232
H      -0.165484    1.947054   -0.897406
H      -0.576532    1.747997    0.826977
H       0.414444    0.011113   -2.100786
H       2.695195    0.094657   -1.166667
H       2.212376   -1.001467    0.139023
H      -0.203250   -2.441306   -0.414824
H      -0.906971   -2.055417   -1.989696
