19

C       0.026208    1.435912   -0.086809
N       0.038819   -0.010431   -0.050120
C      -1.042272   -0.663505    0.007388
C      -2.468226   -0.161005    0.053355
O      -1.021543   -2.021022    0.038296
C       0.262803   -2.657420   -0.028201
C      -0.010982   -4.150825   -0.026896
O      -0.782142   -4.551669   -1.143424
H       0.600116    1.826379    0.762144
H       0.537140    1.780224   -0.993906
H      -0.969322    1.900115   -0.064294
H      -2.719348    0.378604   -0.864750
H      -3.155888   -0.999144    0.165768
H      -2.612642    0.527507    0.890390
H       0.775554   -2.346226   -0.943726
H       0.876319   -2.352473    0.826493
H       0.940007   -4.690457   -0.085215
H      -0.498085   -4.431333    0.920797
H      -1.557427   -3.979390   -1.152310
