19

C       0.026761    1.492633    0.083550
C       1.439067    2.135195    0.004948
C       2.336009    1.464321   -1.057202
C       1.543763    0.692342   -2.144088
C       2.485333   -0.540623   -2.165157
O       1.414134   -1.511364   -1.838818
C       1.120186   -0.333830   -1.039646
C       0.015067   -0.057922   -0.073470
C       2.609728   -0.015492   -0.713279
H      -0.469466    1.784967    1.013578
H      -0.576343    1.906409   -0.732190
H       1.320709    3.203258   -0.208737
H       1.942307    2.073044    0.979003
H       3.180492    2.084290   -1.370132
H       0.922105    1.056257   -2.962609
H       3.242064   -0.851148   -2.884382
H       0.194377   -0.569045    0.879074
H      -0.956833   -0.391728   -0.451450
H       3.191574   -0.449394    0.101066
