20

C      -0.373993    1.491571   -0.497373
C      -0.176392    0.027531   -0.256249
C      -0.057899   -0.940120   -1.171522
C       0.162212   -2.309966   -0.563875
C       0.223722   -2.011164    0.929775
N       1.349560   -1.126420    1.321747
C      -0.011931   -0.557117    1.121112
C      -0.742466    0.033544    2.300699
O      -0.470583   -0.768059    3.442128
H       0.465416    2.075219   -0.098018
H      -0.459560    1.709678   -1.565323
H      -1.280561    1.868151   -0.006254
H      -0.070222   -0.774352   -2.244076
H      -0.656566   -3.002068   -0.802801
H       1.088738   -2.774926   -0.922776
H      -0.125850   -2.736903    1.654759
H       1.469962   -1.242243    2.328535
H      -0.407791    1.071221    2.462230
H      -1.822656    0.066820    2.084954
H      -0.843293   -0.334116    4.214219
