14

N       0.205982    1.448963    0.244659
C       0.028582    0.042371    0.026805
C      -1.470988   -0.474238   -0.016026
N      -1.128266   -1.141680   -1.295173
C       0.109303   -0.585822   -1.382811
N       0.662022   -0.647608   -2.541619
O      -0.346225   -1.345962   -3.307348
C      -1.501662   -1.565888   -2.563527
O      -2.513044   -2.036816   -2.990711
H       1.188405    1.684836    0.331387
H      -0.170433    1.995424   -0.523733
H       0.624977   -0.514763    0.752401
H      -1.782848   -1.158387    0.773476
H      -2.195522    0.334495   -0.133309
