15

C       0.024073    1.468006    0.010354
N      -0.061550    0.016534    0.002534
C      -1.228685   -0.642099    0.009309
N      -2.354254   -0.003946    0.023380
C      -3.511806   -0.714981    0.030519
N      -4.724357   -0.219566    0.041286
C      -5.491653   -1.349053    0.044056
N      -4.847895   -2.485257    0.037007
O      -3.503906   -2.071528    0.027034
H       1.075657    1.757599    0.001902
H      -0.477689    1.888283   -0.866063
H      -0.460551    1.877800    0.901265
H       0.785985   -0.523078   -0.008831
H      -1.139765   -1.731159    0.001988
H      -6.572458   -1.328855    0.052735
