14

O      -0.183173    0.198645    0.377969
C      -0.008313    1.331984    0.023488
C       1.390146    1.966256   -0.098431
C       1.461840    2.811522   -1.280943
C       1.476888    3.488033   -2.273993
C       1.675610    2.705223    1.214903
C       2.424363    3.963390    1.283485
O       0.999666    3.938140    1.425700
H      -0.844919    2.019921   -0.215002
H       2.102433    1.135103   -0.169161
H       1.500819    4.086481   -3.151399
H       1.687106    2.037644    2.077101
H       2.979020    4.203753    2.188771
H       2.787469    4.415476    0.363796
