17

O      -0.045367    1.375237   -0.089152
C       0.010202   -0.011958    0.044177
C      -0.499055   -0.661412    1.314259
C      -1.309043   -0.704817    0.051674
C      -2.652809   -0.061058   -0.285693
N      -2.826127   -1.079351   -1.361160
C      -1.732124   -1.912102   -0.805996
C      -0.771602   -2.425716   -1.786641
N       0.014534   -2.834055   -2.529044
H       0.688913    1.754720    0.404728
H       0.829226   -0.503906   -0.480810
H      -0.018719   -1.572139    1.658916
H      -0.854042   -0.001241    2.099688
H      -3.384783   -0.131179    0.530076
H      -2.614770    0.967654   -0.652575
H      -3.727759   -1.541725   -1.384432
H      -2.067985   -2.755122   -0.184729
