19

C       0.319622    1.109998    0.333642
N       0.203295   -0.268278   -0.138507
C       0.675668   -0.495138   -1.497003
C       2.241170   -0.444902   -1.716309
C       2.279489   -1.976920   -1.533509
O       2.609559   -2.260578   -0.180783
C       0.752697   -2.024881   -1.811338
C      -0.104108    0.302078   -2.447027
N      -0.688610    0.921997   -3.228309
H       1.339061    1.527093    0.280178
H      -0.339654    1.755399   -0.254503
H      -0.010717    1.151677    1.374642
H       0.737053   -0.886074    0.465816
H       2.516209   -0.139347   -2.727576
H       2.811286    0.133330   -0.987241
H       2.920489   -2.540564   -2.220839
H       2.477557   -3.203167   -0.031826
H       0.141653   -2.656386   -1.161663
H       0.524468   -2.240196   -2.856949
