16

C       0.011523    1.546162    0.009075
C      -0.049424    0.051799    0.069594
C      -1.318052   -0.817939   -0.016533
C      -0.689331   -1.820321    1.003717
C       0.567455   -0.933487    1.055314
N       1.129218   -0.723451   -0.280763
C       1.393647   -0.714405    2.202430
N       2.025210   -0.540836    3.156312
H       1.004785    1.898845    0.296296
H      -0.191120    1.895018   -1.010285
H      -0.731505    1.997150    0.673925
H      -2.205303   -0.323374    0.384501
H      -1.551011   -1.200190   -1.015386
H      -1.230699   -1.848398    1.950695
H      -0.514191   -2.845823    0.664808
H       0.939462   -1.512230   -0.897968
