23

C       0.009126    1.579939   -0.045426
C       0.025897    0.048966   -0.029808
C       0.716142   -0.551066   -1.258989
C       0.732428   -2.073077   -1.242830
O       1.385548   -2.534131   -2.408651
C       1.455173   -3.937184   -2.493058
C       2.183301   -4.286657   -3.795875
C       2.313636   -5.724389   -3.988337
C       2.406735   -6.915143   -4.121740
H       1.026359    1.985875   -0.070869
H      -0.519581    1.960218   -0.926363
H      -0.488669    1.982763    0.842040
H       0.530629   -0.301904    0.880098
H      -1.003904   -0.327367    0.030816
H       0.212676   -0.216208   -2.174292
H       1.750275   -0.190755   -1.323291
H       1.253685   -2.443108   -0.342760
H      -0.297340   -2.468831   -1.201498
H       1.999643   -4.359210   -1.632806
H       0.447936   -4.384467   -2.493235
H       1.635710   -3.838031   -4.633203
H       3.172016   -3.812895   -3.781356
H       2.495311   -7.964786   -4.252895
