21

O      -0.083038    1.419695    0.047654
C      -0.107751    0.018326    0.066318
C      -0.551588   -0.780556    1.259136
C      -1.642771   -0.025268    2.022150
C      -2.490651    0.067568    0.716432
C      -1.405087   -0.712267   -0.046097
C      -1.652770   -1.733961   -1.100212
C      -2.845475   -2.659741   -1.056056
C      -2.784357   -1.563832   -2.089333
H       0.617581    1.711761    0.640366
H       0.701807   -0.447063   -0.499358
H       0.045897   -1.596498    1.652038
H      -2.124042   -0.638312    2.786710
H      -1.341675    0.925811    2.471561
H      -3.431341   -0.481112    0.798425
H      -2.694062    1.071895    0.338110
H      -0.743597   -2.172214   -1.504125
H      -2.704090   -3.684756   -1.380958
H      -3.552396   -2.549423   -0.240814
H      -3.440857   -0.710456   -1.957170
H      -2.608742   -1.832086   -3.125178
