19

C      -0.190211    1.561061   -0.039568
C       0.106077    0.064325   -0.006531
C       0.783417   -0.517557   -1.242760
O       1.903092    0.283340   -1.690250
C       2.828553   -0.804907   -1.478901
C       1.746517   -1.664992   -0.797740
C       1.762010   -1.649119    0.734439
C       1.033626   -0.360547    1.144363
O       1.159642    0.215199    2.192686
H       0.697992    2.109761   -0.361059
H      -1.006384    1.790198   -0.730610
H      -0.466000    1.905826    0.959992
H      -0.828032   -0.499479    0.153147
H       0.093552   -0.730460   -2.066801
H       3.202494   -1.207790   -2.428850
H       3.681201   -0.505411   -0.857247
H       1.586772   -2.654332   -1.225240
H       1.196304   -2.493575    1.148020
H       2.760316   -1.685382    1.177826
