17

C       0.110513    1.474970   -0.167222
C       1.433536    1.778853    0.059388
C       1.477996    1.186333    1.557224
C       0.498552   -0.121859    1.418588
C       0.004914   -0.021058   -0.113400
C       1.386873   -0.626258   -0.506806
C       1.716936   -0.987965    0.979164
C       2.654849    0.267349    1.094031
C       2.341195    0.619263   -0.390234
H      -0.678632    2.036432    0.339567
H       1.452333    1.768646    2.477172
H      -0.185976   -0.379499    2.229018
H      -0.914107   -0.546271   -0.372064
H       1.466956   -1.319727   -1.341080
H       1.947815   -1.989224    1.341136
H       3.651592    0.316299    1.531031
H       3.124054    0.780870   -1.129165
