19

C       0.012345    1.554374   -0.033027
C       0.029648    0.023560   -0.028399
C       0.710022   -0.566855   -1.268396
C       0.720244   -2.086617   -1.250688
O       1.375862   -2.533590   -2.449037
C       1.464646   -3.878296   -2.588743
N       2.053888   -4.183049   -3.785756
O       1.054263   -4.685005   -1.787549
H       1.029031    1.961454   -0.063301
H      -0.524198    1.941259   -0.906337
H      -0.478362    1.949546    0.861629
H       0.542358   -0.334537    0.873902
H      -0.998930   -0.354432    0.037404
H       0.197560   -0.223798   -2.175754
H       1.742926   -0.203229   -1.337245
H       1.256113   -2.477945   -0.379133
H      -0.294471   -2.497947   -1.220967
H       2.563075   -3.462846   -4.269246
H       2.367091   -5.132367   -3.892874
