17

C      -0.016419    1.533533    0.090402
C       0.147166    0.048122    0.057346
O      -1.125848   -0.700082    0.025041
C      -0.408069   -1.768788    0.656562
C       0.724942   -0.925461    1.144597
C       0.968041   -1.875161   -0.020918
O       1.755994   -3.002183    0.011888
C       0.969096   -0.718177   -1.024762
O       0.379360   -0.874933   -2.283054
H       0.958849    2.021743    0.177538
H      -0.489509    1.875265   -0.836198
H      -0.641430    1.839680    0.933652
H      -0.947937   -2.592161    1.104883
H       1.208152   -0.789443    2.100854
H       1.422271   -3.623067   -0.645789
H       1.970970   -0.299797   -1.152878
H      -0.561034   -1.014370   -2.099335
