19

C      -0.414262    1.403757   -0.150095
C       0.144836    0.027261    0.167210
C       1.021281   -0.604542   -0.954524
N       2.334605   -0.827071   -0.344412
C       2.245559   -0.382166    0.846038
O       1.064207    0.124014    1.287239
N       3.268184   -0.288544    1.771537
C       3.283115   -1.184604    2.928144
C       4.270717   -1.338063    1.818185
H       0.389926    2.084064   -0.447483
H      -1.130422    1.334449   -0.975732
H      -0.927818    1.830141    0.716043
H      -0.661653   -0.645295    0.479857
H       0.605780   -1.549178   -1.322471
H       1.110492    0.065767   -1.819289
H       3.572866   -0.722620    3.866598
H       2.489907   -1.923569    3.000954
H       4.140667   -2.168971    1.131724
H       5.291422   -0.992826    1.949233
