21

C       0.077616    1.576361    0.138487
C       0.029678    0.059571    0.027564
C       1.013847   -0.687374   -0.959194
C       1.238435   -1.783025    0.135961
C       2.601036   -2.158729    0.781923
O       3.677864   -1.351589    0.335575
C       2.309224   -1.920241    2.301963
C       1.293386   -0.777197    2.282983
C       0.665223   -0.790540    1.108993
H       1.097104    1.919977    0.343906
H      -0.259305    2.049737   -0.789977
H      -0.566306    1.935469    0.948491
H      -0.996360   -0.270295   -0.179443
H       0.599327   -1.011751   -1.916328
H       1.922904   -0.107491   -1.138605
H       0.618563   -2.669896   -0.038839
H       2.908669   -3.186428    0.570392
H       3.491455   -0.447709    0.616045
H       1.906521   -2.826530    2.775466
H       3.235413   -1.670476    2.830838
H       1.188265   -0.056147    3.085352
