15

N       0.377091    0.934243    0.566497
C       0.110741   -0.156618    0.014882
C      -1.052964   -1.122181    0.051511
C      -0.212651   -1.916917   -0.978024
O       0.835820   -0.900516   -0.902591
C       0.267414   -3.280003   -0.560114
C       1.694530   -3.605011   -0.452345
O       0.899311   -3.359820    0.713059
H       1.287746    1.290245    0.271619
H      -1.189957   -1.620073    1.012146
H      -2.000836   -0.716944   -0.303786
H      -0.629321   -1.953353   -1.989789
H      -0.440659   -4.083977   -0.771038
H       2.022011   -4.634483   -0.586036
H       2.425300   -2.833270   -0.678640
