14

O       0.065560    0.042785   -0.189908
C      -0.002556    1.214709    0.025630
C      -1.111389    2.205027    0.105993
C      -0.759750    3.350720    1.016118
C       0.246165    3.224659    2.138518
C       1.483846    2.661815    1.422966
O       2.565550    2.451208    1.897077
C       1.035215    2.379204   -0.000525
N      -0.125689    3.314819   -0.310639
H      -2.102722    2.100566   -0.321169
H      -1.549095    4.091352    1.101239
H       0.480360    4.205785    2.563590
H      -0.054713    2.569221    2.960947
H       1.818497    2.323149   -0.751978
