23

C       0.024333    1.484757    0.365237
C       0.015182    0.006333    0.008794
C       1.050206   -0.455972   -0.992467
C       1.203030   -0.819751    0.462780
C      -1.334000   -0.639969    0.056114
C      -1.835016   -1.690197   -0.897968
C      -2.601348   -0.398899   -0.783583
C      -3.478098   -0.425771    0.469483
C      -2.202838   -0.701899    1.331661
H       1.040804    1.889778    0.338687
H      -0.586696    2.061279   -0.338355
H      -0.371762    1.659963    1.371565
H       0.800347   -1.248444   -1.687556
H       1.713994    0.297469   -1.403679
H       1.977796   -0.328040    1.041811
H       1.022169   -1.851808    0.743321
H      -1.273407   -1.806812   -1.818292
H      -2.264637   -2.617231   -0.520664
H      -2.736927    0.248584   -1.642420
H      -3.931244    0.540620    0.702677
H      -4.262647   -1.190146    0.488620
H      -2.169967   -1.650045    1.879161
H      -1.996752    0.107470    2.035137
