20

C       0.123304    1.494794    0.177953
C      -0.090005   -0.014508   -0.009681
C       0.559840   -0.525810   -1.264261
C       2.037798   -0.941897   -1.372063
C       0.960707   -1.918813   -1.740777
C       0.728245   -3.265597   -1.128979
N       0.424558   -1.600697   -3.078105
C       0.101965   -0.282318   -2.695170
O      -0.361265    0.637119   -3.311341
H       1.187714    1.731018    0.278034
H      -0.262320    2.045024   -0.684889
H      -0.390160    1.854389    1.074645
H       0.306155   -0.560843    0.855671
H      -1.165036   -0.229708   -0.046161
H       2.680133   -0.513189   -2.136546
H       2.523978   -1.094409   -0.411017
H       0.984339   -3.254975   -0.065363
H      -0.319183   -3.563357   -1.234784
H       1.348586   -4.031261   -1.609167
H       0.916578   -1.809256   -3.941496
