21

O       0.583635    0.655269   -0.794302
C       0.154197   -0.341551    0.100707
C      -0.029262   -0.026139    1.607253
C      -1.228624   -1.013548    1.603362
C      -1.312351   -0.860115    0.063173
C      -2.449511    0.069382   -0.489744
C      -2.906006   -1.072561   -1.405425
C      -1.772107   -1.513606   -2.287687
C      -1.804630   -1.977405   -0.854194
H       0.021729    1.427139   -0.667812
H       0.847165   -1.178261   -0.040249
H       0.807399   -0.217684    2.282508
H      -0.365487    1.007056    1.749895
H      -0.922512   -2.024707    1.889955
H      -2.114326   -0.741227    2.182486
H      -3.176846    0.322326    0.285998
H      -2.149132    0.992528   -1.000908
H      -3.936601   -1.315273   -1.633406
H      -2.024214   -2.271161   -3.023023
H      -1.016221   -0.803046   -2.611542
H      -1.846850   -3.027800   -0.588601
