18

C       0.084445    1.475800    0.008881
C       0.015770   -0.040646    0.001814
O      -1.348244   -0.425439    0.012602
C      -1.530024   -1.802136    0.007232
C      -3.031297   -2.113857    0.020020
O      -3.895625   -1.285473    0.033454
N      -3.262139   -3.502895    0.014000
C      -4.485996   -4.168218    0.022434
O      -5.573937   -3.666009    0.036371
H       1.126783    1.807778    0.000848
H      -0.419752    1.885697   -0.870321
H      -0.403234    1.876694    0.901450
H       0.516240   -0.450444   -0.891926
H       0.532810   -0.459468    0.881830
H      -1.079117   -2.275259   -0.885842
H      -1.062264   -2.284409    0.886643
H      -2.447770   -4.101086    0.002149
H      -4.318975   -5.265465    0.013902
