14

C       0.274341    1.478039   -0.173583
C      -0.233980    0.072595    0.195402
C       0.463819   -0.512434    1.335062
C       1.057781   -0.978511    2.272806
C       1.754953   -1.540434    3.421870
O       2.868144   -2.310976    2.980549
H       1.337119    1.451054   -0.428475
H      -0.277557    1.870471   -1.032999
H       0.146228    2.169819    0.663441
H      -1.309297    0.115090    0.412041
H      -0.129895   -0.594845   -0.669677
H       2.078789   -0.720604    4.084238
H       1.051663   -2.158320    4.004395
H       3.300658   -2.662537    3.765489
