19

C       0.020199    1.553196   -0.054893
C       0.021140    0.037626    0.004597
C      -1.193946   -0.618030   -0.631440
C       1.283855   -0.736581   -0.135771
O       2.428211   -0.061830    0.349377
C       1.880313   -0.037088    1.700771
C       0.578752   -0.689262    1.248473
C      -0.092531   -1.731981    2.027567
O       0.251657   -2.048590    3.145893
H       0.987301    1.969004    0.231442
H      -0.190272    1.883253   -1.078074
H      -0.752348    1.973135    0.597641
H      -1.307898   -0.261061   -1.660218
H      -1.110515   -1.708427   -0.667874
H      -2.111965   -0.370724   -0.088116
H       1.433185   -1.568087   -0.818044
H       2.455382   -0.690577    2.361384
H       1.835826    0.974932    2.114477
H      -0.954012   -2.230673    1.536185
