19

C       0.101023    1.539482   -0.045843
C      -0.006205    0.017309    0.031942
C      -1.448241   -0.473311    0.004879
O       0.650463   -0.616447   -1.079987
C       2.030738   -0.724391   -0.998069
C       2.669149   -1.633241   -2.063631
O       3.529074   -0.534578   -2.505426
C       2.929180    0.360903   -1.657018
O       3.132148    1.528809   -1.568174
H       1.141735    1.869846   -0.079646
H      -0.398929    1.906435   -0.948040
H      -0.382010    1.994770    0.824896
H       0.480001   -0.335267    0.956456
H      -1.935314   -0.165531   -0.925601
H      -1.488204   -1.563766    0.070201
H      -2.010195   -0.051335    0.843006
H       2.368506   -0.941999    0.026230
H       3.263793   -2.478333   -1.713890
H       1.976369   -1.931198   -2.852337
