16

C      -0.070875    1.321486   -0.050722
O      -0.068944   -0.088397    0.042040
C       0.603796   -0.597732    1.111918
C       1.299528    0.022115    2.125253
N       1.812658   -0.992429    2.927713
C       1.424163   -2.208384    2.441224
O       1.800381   -3.341384    3.090117
C       0.678677   -2.006634    1.308492
O       0.133662   -3.000490    0.532557
H       0.951624    1.713157   -0.142345
H      -0.641194    1.581882   -0.944070
H      -0.544696    1.775011    0.830795
H       1.493112    1.057241    2.338739
H       2.286525   -0.866372    3.803258
H       1.439641   -4.086076    2.596590
H      -0.306598   -2.571059   -0.208298
