18

C       0.083534    1.534449    0.130763
N      -0.030336    0.093595    0.174866
C      -1.291719   -0.496175    0.653995
C      -0.456296   -1.631842    1.321701
C       0.739910   -0.641094    1.193681
C      -0.842218   -2.113340    2.624931
C      -1.154288   -2.508517    3.724394
C      -1.564849   -2.985415    5.018385
O      -0.838006   -3.073094    5.982056
H       1.099750    1.815944   -0.164057
H      -0.606310    1.937512   -0.617995
H      -0.139892    2.017287    1.100947
H      -1.805237    0.117949    1.411472
H      -2.004637   -0.782635   -0.124991
H      -0.335891   -2.472043    0.631878
H       1.699631   -1.044774    0.857816
H       0.887858   -0.075083    2.127295
H      -2.633535   -3.278108    5.074269
