17

O       0.047269    1.370863    0.327082
C       0.064093    0.019839   -0.096234
C      -1.348310   -0.567759   -0.065638
C      -1.590928   -2.117456   -0.088339
O      -0.486248   -2.817761    0.422232
C      -2.682220   -1.945693    1.035622
O      -2.674748   -2.900336    2.061427
C      -2.005165   -0.602852    1.312557
O      -1.798390   -0.021692    2.346357
H      -0.264158    1.372106    1.240809
H       0.460789    0.011978   -1.115992
H       0.722523   -0.601274    0.523294
H      -1.993292   -0.063976   -0.793652
H      -1.939147   -2.536303   -1.038353
H      -0.838565   -3.416867    1.096826
H      -3.684028   -1.830300    0.604150
H      -2.396027   -2.449511    2.869390
