19

C       0.041839    1.364707    0.065789
O       0.009245   -0.043519   -0.021196
C      -1.234751   -0.607062    0.004837
C      -1.410935   -1.977985   -0.019658
N      -0.486764   -3.044818   -0.034622
N      -2.775683   -2.214163    0.040927
C      -3.389216   -3.523836   -0.005897
C      -3.437532   -1.020856    0.086609
C      -2.513431    0.006073    0.074557
H       1.093842    1.656863    0.043169
H      -0.479649    1.834895   -0.779586
H      -0.412297    1.723543    0.999898
H      -0.076111   -3.181598   -0.954513
H       0.281802   -2.854188    0.600023
H      -4.247347   -3.556033    0.670614
H      -3.729995   -3.778601   -1.016911
H      -2.649203   -4.261221    0.307628
H      -4.514957   -0.989898    0.117598
H      -2.739891    1.059010    0.116317
