14

N      -0.086897    1.339783    0.080406
C      -0.048874    0.068968    0.000742
N       1.051063   -0.805233   -0.129099
C       0.711888   -2.239257   -0.017993
C      -0.780124   -2.153007    0.001105
C      -1.169119   -0.863605    0.010435
O      -2.523171   -0.813743    0.008309
C      -2.870873   -2.134194   -0.002940
N      -1.883325   -2.981346   -0.011991
H       0.851127    1.742168    0.051070
H       1.943522   -0.491858    0.218240
H       1.101479   -2.807531   -0.871711
H       1.122467   -2.687671    0.896844
H      -3.928481   -2.345893    0.000331
