17

C       0.010590    1.431037    0.174024
N      -0.011510    0.037762   -0.240897
C      -1.191632   -0.687263   -0.115292
C      -1.322492   -2.048316   -0.011536
N      -2.689783   -2.346745    0.019774
C      -3.236368   -3.614933    0.119127
O      -4.418442   -3.848070    0.152551
C      -3.410543   -1.167856   -0.055912
C      -2.526378   -0.134297   -0.138769
H       1.024905    1.818202    0.051399
H      -0.645067    2.026577   -0.469183
H      -0.300468    1.590640    1.218553
H       0.801206   -0.477060    0.064374
H      -0.586904   -2.834354    0.033693
H      -2.452369   -4.392689    0.164053
H      -4.486360   -1.200351   -0.039332
H      -2.786189    0.909991   -0.210783
