17

C      -0.098246    1.563255   -0.030487
N       0.167766    0.133147    0.036686
C       1.244671   -0.684057   -0.410367
C       2.717760   -0.361460    0.057832
C       2.970832    0.792744    0.957610
O       2.524170    2.098002    0.734737
C       2.227243   -0.379790    1.528449
C       0.773268   -0.707236    1.013447
H       0.636469    2.094302   -0.635237
H      -1.095064    1.708517   -0.463904
H      -0.094737    2.008169    0.968107
H       1.081073   -1.408081   -1.202705
H       3.538286   -0.926928   -0.368810
H       4.007757    0.770054    1.306829
H       2.415451    2.521071    1.593263
H       2.642684   -0.952142    2.350441
H       0.174507   -1.452056    1.529241
