17

N      -0.028513    1.469564    0.039844
C       1.287281    0.782848   -0.038278
C       0.028091    0.000168   -0.031295
C      -0.142714   -0.716934   -1.358663
O       1.033845   -1.598502   -1.403972
C       1.701637   -0.598408   -2.167990
C       1.930035    0.813054   -1.429140
N       0.995594    1.401407   -2.426002
C       0.411684    0.076759   -2.626891
H      -0.211054    1.747098    1.000369
H       1.929488    0.791826    0.835846
H      -0.250745   -0.572685    0.848956
H      -1.069773   -1.282426   -1.472094
H       2.511888   -0.973203   -2.792075
H       2.935538    1.239578   -1.430742
H       0.368518    2.085288   -2.009333
H      -0.115640   -0.116761   -3.562578
