15

N       0.034097    1.344269   -0.100074
C      -0.034790   -0.011974   -0.015143
N      -1.153040   -0.631739    0.015031
C      -1.182782   -2.064375    0.168508
C       0.125151   -2.827110    0.305091
O       0.197779   -4.024162    0.460182
N       1.270727   -2.045128    0.231599
C       1.316198   -0.671878    0.056494
N       2.367786    0.039702   -0.054778
H       0.931867    1.743438   -0.321910
H      -0.807751    1.835911   -0.347097
H      -1.788274   -2.328002    1.046411
H      -1.716760   -2.515189   -0.679594
H       2.142289   -2.556202    0.303330
H       3.225148   -0.512247   -0.003447
