18

C       0.011263    1.532383    0.073699
C       1.394683    2.112567   -0.055383
C       2.464943    1.390439   -0.386298
C       2.362136   -0.091045   -0.669018
C       0.953800   -0.467141   -1.123781
C       0.024205   -0.006978    0.006148
N       0.448838   -0.567139    1.295261
C       1.655757   -0.930489    1.420159
O       2.676979   -0.844464    0.535923
H      -0.438423    1.846350    1.022309
H      -0.634850    1.936016   -0.720054
H       1.500655    3.178115    0.134938
H       3.450696    1.842280   -0.438063
H       3.125106   -0.404777   -1.384524
H       0.717221    0.025360   -2.072117
H       0.883077   -1.549194   -1.270882
H      -0.998389   -0.356705   -0.167490
H       2.001833   -1.395557    2.342089
