17

C       0.138655    1.592877    0.330786
C       0.027953    0.083631    0.417745
O       0.949387   -0.624033    0.739713
C      -1.343496   -0.503096    0.029728
N      -1.583584   -1.796493    0.616928
C      -1.042049   -2.793522    0.052432
N      -1.164313   -4.058533    0.606145
C      -0.663491   -5.205111    0.032354
O      -0.084050   -5.251134   -1.025962
H      -0.409086    2.044049    1.166846
H       1.184897    1.895928    0.382703
H      -0.319892    1.968822   -0.590182
H      -2.132849    0.192393    0.334104
H      -1.348761   -0.514673   -1.075686
H      -0.466000   -2.787887   -0.875510
H      -1.644935   -4.114282    1.493325
H      -0.858116   -6.092596    0.663196
