19

C      -0.553714    1.436890   -0.008210
C      -0.213673   -0.031567    0.080489
C       1.100878   -0.535922   -0.408575
N       0.803613   -0.533491    1.017631
C       1.500649    0.343334    1.873605
C       0.984956    0.934912    3.010303
N       2.005213    1.639191    3.608897
C       3.156505    1.502118    2.885042
C       2.879249    0.704288    1.797541
H       0.344258    2.058117    0.029009
H      -1.080889    1.643805   -0.945628
H      -1.204778    1.743715    0.818010
H      -1.070596   -0.699216    0.002320
H       1.191636   -1.515358   -0.871553
H       1.799626    0.211138   -0.782452
H      -0.004104    0.900208    3.435395
H       1.913051    2.174431    4.453316
H       4.072618    1.976489    3.197871
H       3.581159    0.394402    1.039101
