16

O       0.055251   -0.083742   -0.012247
C       0.003302    1.127907   -0.087987
C      -1.315892    1.904396   -0.088469
N      -1.314134    3.063422   -0.993410
C      -1.355258    4.402607   -0.410755
C      -0.087700    3.866960   -0.973114
C       1.020945    3.377923   -0.052766
N       1.109248    1.926950   -0.155385
H      -2.099746    1.207534   -0.390535
H      -1.519040    2.195790    0.954602
H      -1.939838    5.134702   -0.960744
H      -1.422592    4.489735    0.673575
H       0.239953    4.191708   -1.958133
H       1.980457    3.808383   -0.349459
H       0.834703    3.692750    0.983954
H       1.998788    1.461759   -0.057838
