18

C       0.245473    1.412840    0.184063
O      -0.018488    0.027407   -0.029546
C       0.468915   -0.495309   -1.180462
N       1.069494    0.209445   -2.039728
C       1.666189   -0.395601   -3.213483
C       0.744701   -1.325726   -4.027202
N       0.477825   -2.629871   -3.447947
C       0.237615   -2.778127   -2.215003
N       0.192948   -1.859859   -1.169963
H       1.320635    1.610611    0.172060
H      -0.226950    2.021873   -0.591015
H      -0.177746    1.642947    1.162858
H       1.996968    0.417110   -3.869565
H       2.568574   -0.959521   -2.936851
H      -0.205493   -0.804405   -4.206422
H       1.197889   -1.491525   -5.011571
H       0.015986   -3.782457   -1.848612
H      -0.168497   -2.198895   -0.290569
