20

C       0.373001    1.351356    0.000021
O       0.176358   -0.041197    0.023858
C       0.722406   -0.654137    1.171810
C       0.441919   -2.145232    1.102005
C       1.285885   -2.898929    0.033837
C       2.282500   -3.328283    1.146893
C       1.191251   -2.980774    2.191438
O       1.545585   -2.399299    3.423812
H       1.443359    1.614545   -0.005166
H      -0.087184    1.732516   -0.914940
H      -0.094860    1.846198    0.866129
H       1.810058   -0.454275    1.219226
H       0.279367   -0.228709    2.087723
H      -0.640708   -2.289735    1.052327
H       0.748050   -3.749215   -0.391772
H       1.676604   -2.290983   -0.783953
H       2.670850   -4.349212    1.136940
H       3.132057   -2.639790    1.218655
H       0.603117   -3.866528    2.448454
H       2.202074   -1.715695    3.256412
