16

C      -0.018287    1.524434    0.007424
C      -0.001689    0.023862   -0.033493
C      -0.051149   -0.714185   -1.184375
C      -0.034848   -2.132854   -1.210808
C       0.034315   -2.787996   -0.017047
O       0.054833   -4.136625    0.048374
N       0.084475   -2.072502    1.140994
C       0.072197   -0.657627    1.243860
O       0.122677   -0.145895    2.352318
H       0.878836    1.914222    0.501064
H      -0.075220    1.946596   -0.999279
H      -0.869646    1.892405    0.590716
H      -0.106233   -0.191398   -2.135646
H      -0.075149   -2.697740   -2.130358
H       0.099921   -4.438601    0.961545
H       0.137566   -2.533183    2.040302
