16

C      -0.015484    1.476827    0.060983
C      -0.001937   -0.011654   -0.040493
C      -0.043027   -0.833790   -1.144319
C      -0.001912   -2.179634   -0.658539
C       0.061686   -2.101812    0.719941
N       0.100935   -3.384038    1.198659
C       0.057994   -4.185104    0.058913
N      -0.003085   -3.504106   -1.058638
N       0.062939   -0.798766    1.122451
H       0.890948    1.871708    0.538738
H      -0.075907    1.912450   -0.938814
H      -0.874321    1.848660    0.635313
H      -0.095716   -0.492570   -2.166600
H       0.149734   -3.704547    2.149380
H       0.076220   -5.261393    0.144922
H       0.101758   -0.437218    2.058185
