18

C      -0.088092    1.584454   -0.019494
C      -0.028730    0.085608    0.024464
C      -0.943121   -0.857590   -0.756910
O      -0.960969   -1.819087    0.332494
C      -0.196238   -0.926263    1.145849
C       1.162394   -0.701554    0.550862
C       1.893456   -1.786215   -0.229812
C       2.872824   -2.487176    0.599857
N       3.649896   -3.022937    1.266546
H       0.453424    2.025092    0.823107
H       0.362834    1.975017   -0.939555
H      -1.122795    1.941912    0.023235
H      -1.945266   -0.441845   -0.912609
H      -0.576432   -1.288889   -1.696339
H      -0.455505   -0.848128    2.195563
H       1.805464   -0.085259    1.174504
H       1.167680   -2.518045   -0.599437
H       2.414220   -1.366964   -1.098605
