20

O       0.089168    0.266656   -0.653942
C       0.066373    1.376373   -0.177747
N       1.093539    1.955489    0.540818
C       2.494519    1.792634    0.223721
C       1.858616    3.151706    0.188860
C       1.606667    3.886761   -1.129151
C       0.997150    5.225238   -0.682599
C       1.819499    5.575210    0.572940
C       2.049004    4.217925    1.281603
H      -0.829059    2.027546   -0.209470
H       3.141503    1.521918    1.054577
H       2.728852    1.305915   -0.720798
H       2.568989    4.070296   -1.623712
H       0.986153    3.316554   -1.825336
H       1.043336    5.997221   -1.454998
H      -0.058491    5.086582   -0.418134
H       2.779416    6.008215    0.268921
H       1.327138    6.307410    1.217731
H       1.312713    4.048288    2.071924
H       3.038240    4.155576    1.743718
