19

O       0.238318    1.291157   -0.195219
C       0.090023   -0.104157   -0.070517
C      -1.387044   -0.470568    0.147918
O      -2.161997    0.186021   -0.854220
C      -1.568803   -1.980187    0.201923
C      -2.855212   -2.789054    0.152194
C      -3.802356   -2.267988   -0.923518
O      -2.727784   -2.263948   -1.918266
C      -1.835507   -2.878344   -0.965792
H      -0.497021    1.567633   -0.759277
H       0.459875   -0.635876   -0.965682
H       0.698357   -0.427293    0.782382
H      -1.707516   -0.031417    1.101967
H      -2.216486   -0.416463   -1.612343
H      -0.866663   -2.443169    0.895491
H      -3.115658   -3.509092    0.916026
H      -4.563444   -2.999631   -1.212597
H      -4.245945   -1.278732   -0.792986
H      -1.198709   -3.675626   -1.331673
