16

N      -0.416040    1.305398    0.167775
C      -0.198233    0.069008    0.064101
O      -1.230858   -0.785342   -0.110260
C      -0.940233   -2.180223   -0.040370
C      -1.079032   -2.707845    1.401475
O      -2.447077   -3.092676    1.558183
C      -3.060244   -3.250147    0.348471
O      -4.193580   -3.608404    0.245272
C      -2.060078   -2.923411   -0.757747
H       0.463077    1.810459    0.257157
H       0.782545   -0.428068    0.079110
H       0.055521   -2.376283   -0.451726
H      -0.436805   -3.581132    1.568158
H      -0.847960   -1.942617    2.145458
H      -2.524845   -2.333690   -1.547265
H      -1.705139   -3.864672   -1.189228
