19

C       0.658592    1.270208    0.116886
C      -0.227031    0.046580    0.001002
O      -0.957537   -0.328599    0.893772
C      -0.146804   -0.660689   -1.263526
C      -0.070161   -1.238979   -2.320023
C      -0.027387   -1.990622   -3.578309
C       0.448357   -3.430178   -3.298537
C      -1.426316   -1.983725   -4.226281
O       0.911563   -1.314829   -4.422018
H       1.707475    0.989909   -0.028066
H       0.410400    1.989706   -0.670791
H       0.524097    1.726697    1.098567
H      -0.226911   -3.943496   -2.609192
H       0.476562   -3.995179   -4.237327
H       1.451580   -3.415974   -2.867515
H      -1.733281   -0.958588   -4.443785
H      -1.397631   -2.549203   -5.164769
H      -2.168935   -2.445007   -3.570225
H       0.946055   -1.802573   -5.252723
