15

O       0.090426   -0.006025    0.103790
C       0.029735    1.196484   -0.005653
C      -1.313998    2.013161    0.030072
C      -0.880098    3.399700   -0.443808
C      -0.788157    4.772749    0.313470
N       0.689590    4.733097    0.025157
C       0.601469    3.378394   -0.222738
C       1.152275    2.163502   -0.047533
H      -2.084705    1.534822   -0.577513
H      -1.660018    2.012272    1.069581
H      -1.144902    3.577884   -1.489126
H      -1.306560    5.629947   -0.121544
H      -1.006537    4.695957    1.383799
H       1.382057    5.119180    0.654959
H       2.169185    1.893401    0.196640
