14

O       0.047821    1.434040    0.081598
C      -0.007667    0.066286    0.044720
C      -0.296038   -0.757811   -1.166852
C      -1.185751   -0.952162    0.049576
N      -0.458305   -1.829764    0.995573
C       0.608246   -0.777611    1.155731
C      -2.595354   -0.791857    0.043832
N      -3.744938   -0.647228    0.064006
H       0.148479    1.777016   -0.812125
H      -0.773187   -0.213541   -1.977524
H       0.346054   -1.582110   -1.468843
H      -0.984617   -1.932145    1.858115
H       1.626755   -1.146309    0.997605
H       0.548996   -0.256049    2.115202
