23

C      -0.078246    1.592877   -0.081880
C      -0.017518    0.063313   -0.043642
C       0.931354   -0.495851   -1.162966
C       2.279616   -0.693742   -0.464127
C       3.578207   -0.700872   -1.205574
C       2.053971   -0.779288    0.844975
C       2.609151   -0.460899    2.216157
C       1.240495    0.278509    2.467803
C       0.634295   -0.509340    1.245889
H       0.922961    2.031607   -0.006517
H      -0.520048    1.938365   -1.022468
H      -0.682597    1.991931    0.739387
H      -1.033388   -0.324775   -0.173874
H       0.546836   -1.436393   -1.583236
H       1.014414    0.201953   -2.006737
H       3.641250   -1.553652   -1.894670
H       3.693946    0.201437   -1.820322
H       4.430705   -0.762583   -0.523039
H       2.713843   -1.339084    2.863009
H       3.529989    0.125884    2.274067
H       0.769416    0.121579    3.441413
H       1.326274    1.350270    2.278345
H       0.097497   -1.395377    1.608677
