16

C       0.041306   -1.249544   -0.041110
C       0.040892   -0.047464    0.011309
C       0.039119    1.404396    0.073969
C      -0.144802    2.136699    1.411274
C       1.237531    2.278927    2.063684
C       2.257613    1.630335    1.129964
C       1.391436    2.192586   -0.027812
C       0.789790    3.243609    0.991233
H       0.041269   -2.310429   -0.084843
H      -0.668203    1.811288   -0.656551
H      -1.053207    2.211784    1.994497
H       1.323431    2.464298    3.126642
H       3.221753    2.143104    1.184725
H       2.405174    0.546384    1.167247
H       1.819377    2.400551   -1.005732
H       0.673593    4.316824    0.970580
