20

C      -0.198837    1.193963   -0.525706
O      -0.117174   -0.147915   -0.105250
C      -1.374573   -0.776268    0.013921
C      -1.127517   -2.231166    0.427911
C      -2.419389   -3.055484    0.409095
C      -2.448520   -3.668073   -0.994400
O      -3.387861   -4.197475   -1.525575
C      -1.060368   -3.467271   -1.607994
N      -0.250532   -2.965913   -0.501653
H       0.821569    1.578901   -0.592010
H      -0.679251    1.283406   -1.512641
H      -0.765936    1.810274    0.188813
H      -1.997479   -0.266307    0.768752
H      -1.921239   -0.728181   -0.945142
H      -0.657591   -2.218367    1.416899
H      -2.372109   -3.877098    1.132356
H      -3.332063   -2.489169    0.609587
H      -0.677546   -4.413459   -2.006333
H      -1.172687   -2.779845   -2.464472
H       0.511774   -2.371144   -0.803868
