13

C      -0.020979    1.509106   -0.027540
C      -0.012230    0.024994    0.008665
N      -0.042481   -0.728754   -1.049151
O      -0.021195   -2.080260   -0.609024
C       0.021906   -2.051316    0.731713
N       0.057769   -2.913626    1.703233
N       0.090682   -2.125794    2.855869
C       0.073911   -0.859016    2.529246
N       0.028733   -0.750552    1.151821
H       0.879267    1.911764    0.447626
H      -0.057712    1.842537   -1.064931
H      -0.891076    1.902794    0.507506
H       0.091558   -0.023360    3.207996
