17

C      -0.146146    1.548503    0.096361
N       0.041141    0.111406    0.066701
C      -1.166506   -0.725212    0.303065
C      -0.355669   -1.520379    1.343240
O      -0.533123   -2.501868    2.004340
C       0.759160   -0.530653    1.180848
C       2.236191   -0.770771    1.311509
C       1.536251    0.111408    2.310148
H       0.820382    2.054343    0.003718
H      -0.756929    1.850826   -0.759841
H      -0.638924    1.911649    1.016975
H      -2.006365   -0.186805    0.768303
H      -1.528590   -1.271153   -0.573476
H       2.547305   -1.763539    1.619299
H       2.870967   -0.294810    0.571472
H       1.706737    1.180913    2.248282
H       1.359240   -0.265207    3.312066
