16

C       0.033034    1.514132   -0.098905
C       1.287437    0.725762   -0.004180
C       2.034436    0.637333    1.317030
O       1.256221    1.185888    2.369407
C       0.294077    0.181016    2.631519
C       0.899287   -1.099100    2.122650
O       2.169943   -0.750754    1.620111
C      -0.277679   -0.478990    1.382027
N      -0.021964    0.049982    0.060155
H      -0.235046    2.138016    0.746741
H      -0.299911    1.865203   -1.070792
H       1.883223    0.512188   -0.889108
H       3.021751    1.101412    1.312189
H      -0.243259    0.329050    3.558895
H       0.876049   -2.069814    2.598060
H      -1.236675   -0.978335    1.481914
