17

C      -0.140495    1.478362    0.108741
C       0.100306    0.009827    0.038672
O      -0.788555   -0.897810    0.734516
C       0.646866   -0.980500    0.960210
C       1.319492   -1.781170   -0.181765
C       0.350180   -2.200057   -1.275396
O      -0.899364   -2.782258   -1.138985
C       0.738637   -0.751390   -1.181555
O       1.426719   -0.053150   -2.157745
H       0.740974    2.017397   -0.249888
H      -0.989789    1.764656   -0.521994
H      -0.356197    1.782998    1.135939
H       0.979657   -0.900762    1.988094
H       2.326291   -2.173039   -0.112109
H       0.891491   -2.677921   -2.091236
H      -1.319614   -2.317287   -0.401748
H       0.865334    0.007676   -2.938971
