18

C      -0.009550    1.421759    0.002294
O       1.258508    1.987971    0.001476
C       2.085128    1.637056    1.132795
C       3.357828    0.968120    0.671567
C       3.493025   -0.314076    0.326823
C       2.395937   -1.359588    0.324848
N       1.679137   -1.307751   -0.961939
C       0.636847   -0.607316   -1.024657
O       0.031500    0.001953    0.048774
H      -0.603051    1.701581    0.882618
H      -0.496595    1.774435   -0.916181
H       2.317500    2.566424    1.663745
H       1.524776    0.987702    1.812544
H       4.223693    1.618665    0.575279
H       4.459902   -0.646064   -0.043691
H       2.841244   -2.354544    0.409492
H       1.723192   -1.215815    1.175694
H       0.112643   -0.469552   -1.973760
