22

C      -0.035926    1.563795    0.052653
C       0.083620    0.037015   -0.031712
C       0.738731   -0.497538   -1.319297
C       2.141852    0.080034   -1.518591
C       0.573423   -2.023139   -1.395120
C      -0.735139   -1.920940   -2.071935
C      -0.277267   -0.477341   -2.518291
C       0.457105   -1.215702   -3.644697
N       0.423244   -2.476912   -2.828332
H       0.943709    2.050348    0.074102
H      -0.591814    1.973322   -0.797621
H      -0.566498    1.856271    0.964101
H       0.661593   -0.322910    0.830452
H      -0.913844   -0.408341    0.065709
H       2.721027   -0.001019   -0.591248
H       2.700150   -0.447859   -2.294365
H       2.108598    1.139969   -1.792344
H       0.929973   -2.774398   -0.700570
H      -1.685366   -2.423472   -1.950699
H      -0.901446    0.397293   -2.696694
H      -0.170006   -1.374547   -4.526149
H       1.446540   -0.870234   -3.961275
