19

O      -0.148021    1.409860    0.699676
C      -0.093013    0.132159    0.106510
C       0.493102   -1.019618    0.973992
C      -0.914330   -1.688543    1.024644
C      -1.735409   -1.360249    2.241532
C      -2.682029   -0.449362    1.997340
C      -2.701000    0.004124    0.554713
C      -1.445315   -0.670542   -0.033509
O      -1.618159   -1.256849   -1.305098
H      -0.465064    1.302961    1.603601
H       0.399510    0.268170   -0.860454
H       1.243951   -1.615176    0.449395
H       0.910009   -0.699550    1.933571
H      -0.947849   -2.744725    0.743684
H      -1.555805   -1.824366    3.206241
H      -3.388025   -0.077600    2.732981
H      -3.600136   -0.346086    0.030866
H      -2.664474    1.095234    0.454705
H      -1.777378   -0.548700   -1.939366
