20

C       0.090895    0.675192    1.290606
C       0.033540   -0.458503    0.378496
C      -0.009164   -1.398990   -0.373986
C      -0.090592   -2.525455   -1.314566
N      -1.264887   -3.395524   -1.213589
C      -1.360424   -4.266469   -0.041985
C      -1.969768   -3.663247    1.226689
C      -2.100966   -5.531230   -0.484228
O      -2.914718   -6.122637    0.175964
H       0.986465    0.635399    1.920340
H       0.109997    1.625284    0.745501
H      -0.779834    0.692958    1.955428
H      -0.058989   -2.132419   -2.338743
H       0.799461   -3.158623   -1.211123
H      -2.110750   -2.842542   -1.304806
H      -0.335741   -4.610729    0.173114
H      -2.982934   -3.298671    1.025765
H      -2.047987   -4.423257    2.008159
H      -1.364882   -2.829665    1.586420
H      -1.816799   -5.860483   -1.508441
