23

C      -0.256585    1.394026   -0.162031
C       0.062598   -0.097508   -0.097310
C       1.117565   -0.571090   -1.105158
O       1.584411   -1.809983   -0.603403
C       1.660488   -1.715359    0.822495
C       0.683659   -0.576282    1.234578
C       1.350428   -3.063755    1.437205
C       0.263935   -3.941521    0.871175
C       1.714516   -4.341487    0.730872
H       0.643169    1.995735    0.011748
H      -0.662184    1.673908   -1.140470
H      -0.996072    1.675882    0.594234
H      -0.853560   -0.670478   -0.283224
H       0.727386   -0.740609   -2.113018
H       1.940375    0.162865   -1.173257
H       2.689059   -1.431571    1.098839
H       1.228238    0.241300    1.718494
H      -0.074529   -0.929931    1.937680
H       1.457916   -3.062810    2.518963
H      -0.364509   -4.494849    1.560244
H      -0.234770   -3.597113   -0.027188
H       2.153974   -4.252437   -0.255401
H       2.084213   -5.170344    1.324590
