16

C       0.091286    1.509494    0.069347
C      -0.021514    0.021606   -0.001059
C      -0.161907   -0.727632   -1.101552
C      -0.126583   -2.179250   -0.754549
O       1.116375   -2.604333   -0.138987
C       0.030173   -2.265125    0.718074
C       0.057650   -0.840540    1.250979
C      -0.802374   -3.170126   -1.552655
N      -1.359081   -3.938796   -2.212337
H       1.065394    1.809791    0.474888
H      -0.022833    1.968318   -0.915665
H      -0.669334    1.931208    0.738052
H      -0.245615   -0.367533   -2.118380
H      -0.376725   -3.083854    1.304210
H       0.971378   -0.647021    1.825688
H      -0.788929   -0.652955    1.923504
