14

C      -0.032523    1.559404    0.033435
C       0.005511    0.030334   -0.004439
N       0.678956   -0.492729   -1.187451
C       0.140262   -0.766945   -2.413177
N       1.059854   -1.168529   -3.253356
N       2.261633   -1.160741   -2.572609
C       2.009854   -0.754840   -1.354153
H       0.978812    1.975214    0.034972
H      -0.563950    1.958516   -0.834902
H      -0.546231    1.898531    0.937836
H       0.523547   -0.364517    0.874491
H      -1.007979   -0.381297    0.010620
H      -0.912808   -0.664422   -2.627197
H       2.733753   -0.640731   -0.561543
