25

C       0.008857    1.570020   -0.107815
C       0.049069    0.040672   -0.057427
C       0.672430   -0.498935    1.234887
C       0.763938   -2.030125    1.273445
O       1.476760   -2.522185    0.133887
C       1.363456   -2.585409    2.582434
C       0.605758   -2.129011    3.837517
C       1.430742   -4.114709    2.527225
O       2.159642   -4.567301    3.662796
H       1.016872    1.996111   -0.046891
H      -0.445599    1.926218   -1.037653
H      -0.571849    1.982307    0.725273
H      -0.969914   -0.357032   -0.155116
H       0.608158   -0.351039   -0.913230
H       1.684065   -0.081645    1.361513
H       0.090027   -0.146068    2.093378
H      -0.247254   -2.444114    1.151797
H       2.374710   -2.174391    0.185487
H       2.402095   -2.226208    2.653771
H      -0.467184   -2.338417    3.743739
H       0.979607   -2.672195    4.707975
H       0.724453   -1.059377    4.027049
H       0.405424   -4.523057    2.526944
H       1.911982   -4.426835    1.592660
H       2.200278   -5.526949    3.627159
