17

C       0.061923    1.687007    0.236228
C       0.033097    0.158898    0.046880
C       0.711922   -0.364845   -1.229216
C       1.752718   -1.334760   -0.733501
C       1.811070   -1.420614    0.601200
C       0.818439   -0.517465    1.212686
O       0.612465   -0.307682    2.385294
C      -1.414307   -0.311605    0.177830
O      -2.015614   -0.951494   -0.644675
H       1.090240    2.056553    0.181602
H      -0.526544    2.192726   -0.535364
H      -0.337668    1.951642    1.219016
H      -0.011353   -0.856444   -1.888689
H       1.176048    0.441373   -1.810134
H       2.380757   -1.893273   -1.419574
H       2.475050   -2.037081    1.192823
H      -1.885007   -0.006400    1.136384
