18

C      -0.485235    1.496215    0.227961
C      -0.025110    0.062048    0.021678
C       0.559697   -0.437085   -1.385599
C       1.252518    0.619991   -2.297811
N       2.257882    1.268327   -1.390839
C       2.431691    0.387383   -0.500355
O       2.389632    0.525798    0.875677
C       1.262338   -0.456783    0.784312
C       1.751800   -0.968885   -0.573559
H       0.318388    2.203175    0.007919
H      -1.338608    1.726861   -0.419034
H      -0.802782    1.652417    1.264695
H      -0.828872   -0.632341    0.289646
H      -0.092298   -1.134747   -1.914470
H       1.698185    0.156948   -3.189490
H       0.572770    1.406516   -2.638732
H       1.167771   -1.002193    1.721449
H       2.325905   -1.875902   -0.748759
