19

N      -0.299181   -0.940223    0.497376
C      -0.147198    0.201576    0.403115
C       0.069887    1.641982    0.278049
C       1.521477    1.991910   -0.131763
C       1.750369    3.522647   -0.268563
C       2.642254    3.905884    0.902992
C       2.210218    3.528740    2.272941
N       3.192371    2.704416    1.555837
C       2.617903    1.530331    0.877760
H      -0.628648    2.028872   -0.473100
H      -0.203835    2.113793    1.227512
H       1.693527    1.504411   -1.094800
H       2.264942    3.747248   -1.207703
H       0.809271    4.083171   -0.280747
H       3.326426    4.738971    0.767692
H       2.607741    4.058176    3.134202
H       1.202937    3.146258    2.416617
H       2.237850    0.813334    1.612675
H       3.432397    1.036834    0.339203
