18

C       0.064769    1.557031   -0.128290
C      -0.001680    0.042401    0.140287
C      -1.361360   -0.486900    0.104089
C      -2.492595   -0.899662    0.050161
C      -3.863355   -1.401103    0.048049
C      -3.920244   -2.942562   -0.077219
C      -4.554437   -0.988625    1.350928
O      -5.633096   -0.463914    1.409814
H       1.101186    1.905078   -0.090054
H      -0.343131    1.794841   -1.114320
H      -0.512833    2.109616    0.617497
H       0.613566   -0.489130   -0.597067
H       0.445996   -0.177329    1.118002
H      -4.438501   -0.950342   -0.768471
H      -4.959022   -3.282342   -0.115909
H      -3.409048   -3.262344   -0.988184
H      -3.424800   -3.419445    0.773828
H      -3.969196   -1.237805    2.264788
