21

C      -2.171394    0.379435    1.047610
C      -0.918195   -0.202785    0.375826
C      -0.171215    0.854810   -0.448793
C      -0.004683   -0.781680    1.434090
O      -0.385242   -2.002851    2.048039
C       0.810415   -2.017778    1.274285
C       0.810221   -2.815851   -0.005402
C       2.186831   -3.166205   -0.538864
O      -0.209901   -3.144959   -0.565116
H      -1.913288    1.204363    1.722724
H      -2.866076    0.768744    0.296910
H      -2.691035   -0.386776    1.629601
H      -1.225142   -1.022956   -0.278516
H       0.186797    1.675122    0.185088
H       0.695487    0.427499   -0.963980
H      -0.830284    1.288143   -1.207078
H       0.402275   -0.045638    2.135002
H       1.729413   -2.087938    1.858708
H       2.679194   -3.874156    0.138599
H       2.096201   -3.615306   -1.528119
H       2.825392   -2.276680   -0.586400
