16

C       0.191321    0.921454    0.434412
O      -0.089766   -0.144717   -0.461393
C      -1.354052   -0.677270   -0.291910
C      -1.507601   -2.120129   -0.672594
C      -1.577155   -1.714261    0.783806
O      -0.480660   -1.973129    1.631378
C      -0.234656   -3.267203    1.939420
O       0.627677   -3.589902    2.697712
H       1.193320    1.279907    0.190336
H      -0.523663    1.747877    0.307931
H       0.169461    0.582894    1.476658
H      -2.179283    0.009972   -0.487092
H      -2.412245   -2.455368   -1.166241
H      -0.592451   -2.604744   -0.994445
H      -2.535056   -1.740768    1.295954
H      -0.912495   -3.965301    1.414237
