18

O       0.106259    1.188507   -0.301760
C      -0.046413   -0.173037   -0.025935
C      -0.552008   -0.619442    1.337088
C      -1.449557   -0.690312    0.139822
C      -2.663076    0.208555   -0.101942
C      -3.563603   -0.665355   -1.010766
C      -2.610582   -1.782864   -1.461835
O      -1.730674   -1.975768   -0.358655
H       0.834887    1.523955    0.231015
H       0.654582   -0.838780   -0.528927
H      -0.168576   -1.551420    1.738223
H      -0.765383    0.153539    2.068889
H      -3.168489    0.471229    0.830928
H      -2.354932    1.138079   -0.585099
H      -4.390342   -1.091535   -0.435745
H      -3.988544   -0.111849   -1.851455
H      -3.102473   -2.736418   -1.668190
H      -2.045021   -1.478034   -2.356645
