18

C       0.062119    1.444423   -0.022976
N       0.211790   -0.004252   -0.017609
C      -0.055825   -0.680659    1.238102
C       0.043390   -0.647063   -1.213533
N      -0.071701   -0.068159   -2.358608
C      -0.153895   -1.131617   -3.352167
C      -0.097986   -2.458223   -2.586411
O      -0.142769   -3.598072   -2.977052
N       0.025408   -2.047659   -1.263113
H       0.656453    1.868885    0.791362
H       0.416335    1.828823   -0.978313
H      -0.985149    1.753635    0.106179
H      -1.128757   -0.835899    1.429537
H       0.452663   -1.647611    1.285525
H       0.346673   -0.072575    2.051984
H      -1.081499   -1.073940   -3.934809
H       0.672510   -1.086806   -4.072931
H       0.091887   -2.694436   -0.496489
