14

C       0.108020    1.458269    0.086691
C      -0.013915   -0.032735    0.010088
N      -0.036083   -0.580633   -1.168185
O      -0.136896   -1.925269   -1.280743
N      -0.234154   -2.788922   -0.201966
C      -0.236760   -2.259271    0.988179
N      -0.382445   -3.037021    2.087283
C      -0.100447   -0.813399    1.232404
O      -0.058599   -0.351594    2.365467
H       1.000404    1.735129    0.656719
H       0.164730    1.884186   -0.915552
H      -0.749493    1.881343    0.619322
H      -0.277305   -4.033990    2.004595
H      -0.174784   -2.588293    2.965693
