16

C       0.133545   -1.227320    0.013753
C       0.101579   -0.024692    0.005238
C       0.051353    1.404415    0.017899
C       0.455744    2.187156    1.262799
C       1.019422    1.466909    2.466663
O       2.257254    0.770723    2.233479
C       2.937635    0.975298    1.088286
N       2.609876    1.627161    0.052380
C       1.332455    2.255700    0.047108
H       0.169015   -2.288421    0.006728
H      -0.763332    1.839164   -0.554531
H      -0.159547    3.046093    1.511222
H       1.211591    2.196392    3.261258
H       0.324791    0.713372    2.852323
H       3.899141    0.469484    1.140530
H       1.296288    3.148060   -0.568547
