20

C       0.094826    1.070776   -0.824358
C      -0.085653   -0.036859    0.199539
O      -1.382490   -0.580078    0.053363
C      -1.660038   -1.622398    0.959163
C      -3.074390   -2.104231    0.692759
C      -3.307840   -2.981234   -0.555395
C      -3.737341   -4.057933    0.461564
O      -3.430440   -3.191130    1.576684
H       1.091904    1.512539   -0.736651
H      -0.023659    0.678767   -1.838553
H      -0.648934    1.858187   -0.672826
H       0.673708   -0.824465    0.056644
H       0.047604    0.354430    1.222349
H      -0.951879   -2.459470    0.834774
H      -1.580792   -1.278757    2.004543
H      -3.769337   -1.259873    0.790323
H      -4.081421   -2.636290   -1.241945
H      -2.401201   -3.206431   -1.119867
H      -4.800413   -4.328353    0.438937
H      -3.140329   -4.977351    0.483089
