21

C       0.027526    1.388186    0.418614
C      -0.015636   -0.079388   -0.022099
C      -1.459203   -0.582524   -0.152127
C       0.727240   -0.305515   -1.353091
N       2.151137   -0.021213   -1.296533
C       3.140741   -0.836261   -0.852624
C       4.318536   -0.121896   -0.930847
C       3.929191    1.132875   -1.439561
N       2.617285    1.192409   -1.659759
H       1.052493    1.760301    0.482569
H      -0.508671    2.023376   -0.296058
H      -0.447355    1.510455    1.397436
H       0.493022   -0.686283    0.739761
H      -2.002439   -0.019490   -0.920316
H      -1.497065   -1.642788   -0.424998
H      -2.000307   -0.459405    0.790872
H       0.606137   -1.345989   -1.673269
H       0.312583    0.337708   -2.134143
H       2.933338   -1.844401   -0.529002
H       5.307555   -0.462488   -0.670964
H       4.546638    1.990499   -1.663639
