18

O       2.291584    2.940870    2.189586
C       1.382687    2.874273    1.391042
N       1.420502    2.184545    0.213626
C       2.513853    1.316855   -0.134157
C       2.562097    0.005894    0.652173
C       1.376449   -0.818300    0.438469
C       0.383591   -1.468347    0.245912
C       2.942155    1.333553   -1.577870
C       3.809057    1.975580   -0.521318
H       0.413607    3.395152    1.528847
H       0.545496    2.047643   -0.270767
H       3.460235   -0.554119    0.366029
H       2.667627    0.247887    1.716310
H      -0.482873   -2.061302    0.087668
H       3.261560    0.394979   -2.016805
H       2.402788    1.986807   -2.254672
H       3.845186    3.056587   -0.477244
H       4.729847    1.481139   -0.233590
