12

O       0.198562    1.391543   -0.233045
C       0.076713    0.006197    0.001666
C       0.641417   -0.529564    1.296275
C      -0.285375   -1.293045    1.883223
N      -1.475344   -1.340001    1.135890
C      -1.401915   -0.492019    0.041453
O      -2.307293   -0.196088   -0.697080
H      -0.254433    1.854949    0.480076
H       0.556908   -0.473563   -0.861745
H       1.650101   -0.362467    1.641362
H      -0.220796   -1.863736    2.799443
H      -2.353937   -1.697024    1.475517
