19

C       0.396588    1.491347   -0.130849
C       0.079309    0.024090    0.038343
O       0.870399   -0.845480   -0.836155
C       1.281860   -1.678254    0.277206
C       1.020737   -3.133612   -0.012433
O       1.708230   -3.520350   -1.189508
C       2.600574   -1.182538    0.891398
O       1.879710   -0.253014    1.748588
C       0.604836   -0.723640    1.281825
H       1.428768    1.694628    0.161817
H       0.253099    1.789410   -1.173716
H      -0.269919    2.096733    0.492764
H      -0.989323   -0.173989   -0.126588
H       1.393511   -3.765887    0.799969
H      -0.064279   -3.301240   -0.102648
H       1.440938   -2.892101   -1.872007
H       3.145208   -1.924721    1.487950
H       3.280435   -0.679169    0.197955
H      -0.082984   -0.977147    2.090885
