17

O      -0.041711    1.395186   -0.064587
C      -0.011987   -0.018947   -0.061435
C       0.826494   -0.524948    1.023046
C       1.557407   -0.891391    1.905132
C      -1.378426   -0.690625   -0.120680
C      -1.801667   -0.748595   -1.592892
C      -0.694477   -0.093148   -2.417739
C       0.286200   -0.760314   -1.420578
C      -0.854066   -1.779109   -1.032035
H       0.828987    1.714168    0.195812
H       2.188545   -1.224760    2.691672
H      -2.091999   -0.779714    0.687341
H      -2.846236   -0.875748   -1.847007
H      -0.618273   -0.548657   -3.408673
H      -0.663067    0.997183   -2.491256
H       1.312373   -1.000366   -1.688739
H      -0.892942   -2.853572   -0.944181
