15

C       0.021750    1.402854   -0.006222
N       0.007841   -0.042846    0.032044
N      -0.027770   -0.740296   -1.126213
C      -0.032459   -2.014985   -0.749154
C      -0.000163   -2.145434    0.652597
C       0.025407   -0.848002    1.130801
C       0.064711   -0.312486    2.524135
H       0.924970    1.803173    0.466444
H       0.004485    1.697135   -1.054788
H      -0.854176    1.821531    0.500784
H      -0.058828   -2.792438   -1.498756
H       0.004290   -3.048658    1.241751
H       0.959329    0.294884    2.707261
H      -0.805338    0.316218    2.748831
H       0.071599   -1.137732    3.239078
