19

O       0.068565   -0.024460    0.283037
C       0.078714    1.170030    0.294076
O       1.004356    1.899877   -0.350574
C       0.945814    3.340574   -0.235736
C       2.095414    3.824839    0.648395
C       2.269215    5.342628    0.515015
C       2.594896    5.736986   -0.933745
C       1.752277    4.985160   -1.930240
C       1.013764    3.920571   -1.622037
H      -0.667607    1.794858    0.825375
H      -0.019249    3.599167    0.228120
H       1.912484    3.536585    1.688888
H       3.007286    3.309429    0.325430
H       1.342767    5.842612    0.825945
H       3.054915    5.692802    1.191560
H       2.460329    6.816566   -1.073932
H       3.656659    5.545950   -1.149614
H       1.763915    5.344963   -2.956389
H       0.419593    3.412533   -2.376278
