18

C      -0.040777    1.307150    0.095019
O       0.049597   -0.113240   -0.030709
C       0.692615   -0.565718   -1.125888
N       1.186585    0.224152   -1.992924
N       0.712527   -1.947744   -1.129248
C       1.333181   -2.757962   -2.179242
C       1.050105   -4.199580   -1.658281
N       0.311753   -4.058486   -0.390197
C       0.172419   -2.811555   -0.179022
H       0.954497    1.756220    0.138149
H      -0.580678    1.737331   -0.752086
H      -0.582543    1.481681    1.025419
H       1.635730   -0.276427   -2.753322
H       0.868443   -2.555989   -3.150610
H       2.402926   -2.535421   -2.259582
H       0.452003   -4.780368   -2.367446
H       1.974024   -4.759744   -1.483442
H      -0.330941   -2.384274    0.677861
