15

N       0.228208    1.196870   -0.275187
C      -0.060382    0.027870    0.361750
O       0.487267   -0.303680    1.396541
C      -1.172693   -0.797454   -0.290305
C      -0.979628   -2.273653   -0.153042
C      -0.482811   -3.020003    0.890820
N      -0.566049   -4.292896    0.441034
N      -1.077744   -4.352504   -0.801611
N      -1.329676   -3.126384   -1.161144
H       0.954922    1.779269    0.108209
H      -0.145287    1.423067   -1.179699
H      -2.106832   -0.485647    0.198055
H      -1.287946   -0.560186   -1.351764
H      -0.082333   -2.742073    1.848527
H      -0.290104   -5.145494    0.901330
