16

O      -0.006651    1.377863    0.101191
C      -0.056436   -0.001521   -0.176578
C      -1.483380   -0.524516    0.007318
C      -1.735950   -2.053310    0.164871
O      -2.228294   -1.813002    1.541647
C      -1.951528   -0.471094    1.440337
N      -1.985212    0.452789    2.290643
C      -2.718492   -2.677286   -0.690998
C      -3.524390   -3.186767   -1.421850
H      -0.405438    1.508520    0.974518
H       0.273264   -0.135056   -1.212067
H       0.628984   -0.578450    0.467402
H      -2.165471   -0.041025   -0.693890
H      -0.819893   -2.649561    0.221018
H      -2.290768    0.129866    3.209446
H      -4.238436   -3.641929   -2.063733
