14

N       0.091890    1.381094   -0.123253
C      -0.034966   -0.007186   -0.078344
N      -1.107297   -0.712846   -0.206598
C      -0.708034   -2.059804   -0.197617
C       0.633426   -2.154483   -0.039075
O       1.462788   -3.198250    0.067975
N       1.109616   -0.821872    0.024783
C       2.430006   -0.443655    0.006607
O       3.350502   -1.236441    0.047512
H      -0.802878    1.782805   -0.379561
H       0.392338    1.787754    0.757509
H      -1.422636   -2.860221   -0.288642
H       2.374216   -2.849616    0.075284
H       2.567536    0.645594   -0.058934
