16

C      -0.011085    1.504527   -0.018373
C       0.000469   -0.001521    0.003534
N      -0.058840   -0.634538   -1.166792
C      -0.040781   -1.968383   -1.205281
C       0.036764   -2.717756   -0.042210
F       0.050655   -4.052898   -0.108074
C       0.095076   -2.096694    1.192820
C       0.079274   -0.701168    1.231396
N       0.197901   -0.014172    2.435599
H       0.875759    1.922423    0.473957
H      -0.034040    1.847169   -1.053241
H      -0.890774    1.916962    0.495874
H      -0.088552   -2.455436   -2.174236
H       0.154017   -2.691381    2.098215
H      -0.047761   -0.543730    3.259093
H      -0.204192    0.910909    2.448982
