20

C       0.024160    1.643837    0.043158
C       0.096749    0.121119    0.022506
C       0.764940   -0.638654   -1.129948
C       0.352098   -0.679540   -2.567602
C       1.233047   -1.717186   -0.228226
N       2.245542   -0.801634   -0.834224
C       2.471767   -0.170658    0.508639
C       1.081910   -0.673483    0.940364
O       0.756810   -1.012164    2.244369
H       0.989934    2.111587   -0.166261
H      -0.684388    2.005739   -0.709540
H      -0.325592    2.011452    1.015616
H      -0.901587   -0.307082    0.172915
H       0.461640    0.304588   -3.037152
H       0.976717   -1.385110   -3.121948
H      -0.694534   -0.987355   -2.666511
H       1.261496   -2.797412   -0.285923
H       3.276974   -0.713224    1.011095
H       2.690518    0.903061    0.504180
H       0.536629   -0.207768    2.727195
