18

C      -0.093341    1.511812   -0.020631
C       0.084065    0.005400    0.077792
O       0.947360   -0.495303   -0.987336
C       1.913400   -1.263174   -0.256851
C       1.078837   -2.023552    0.799818
C       0.834079   -0.560082    1.294562
C       2.312773   -0.278185    0.884170
O       3.210281   -0.755967    1.859959
H       0.843179    2.051523    0.141471
H      -0.468724    1.776922   -1.013490
H      -0.823729    1.854145    0.720470
H      -0.900383   -0.473122   -0.021519
H       2.619588   -1.728322   -0.944849
H       0.220031   -2.594063    0.438797
H       1.687056   -2.601747    1.492162
H       0.456574   -0.321641    2.288101
H       2.567401    0.737359    0.558723
H       4.093361   -0.751246    1.477188
