22

C      -0.242165    1.570008    0.116759
C      -0.069956    0.043074    0.046246
C       0.814015   -0.420474    1.220697
C      -1.443714   -0.645528    0.137905
C       0.601932   -0.407405   -1.267350
C       0.070543    0.107877   -2.641423
C       1.503769    0.643095   -2.870963
O       2.099721    1.174219   -3.768271
N       1.882691    0.237494   -1.610847
H       0.712535    2.083826   -0.025463
H      -0.941596    1.940174   -0.638962
H      -0.639611    1.859206    1.095046
H       0.346294   -0.174238    2.179550
H       0.974218   -1.504338    1.196869
H       1.794466    0.067838    1.199648
H      -2.099098   -0.341820   -0.685148
H      -1.346499   -1.736543    0.105076
H      -1.944655   -0.385000    1.075905
H       0.687611   -1.502211   -1.252389
H      -0.227296   -0.668035   -3.348594
H      -0.699212    0.879100   -2.600947
H       2.805882    0.142171   -1.212885
