17

C       0.140607    1.430479   -0.103559
C       0.082691   -0.037709    0.237071
O       0.894570   -0.646696    0.885052
O      -1.027331   -0.608574   -0.292777
C      -1.174523   -2.008945   -0.056216
C      -1.742857   -2.419943    1.331424
C      -2.826877   -3.211712    0.580128
O      -3.627407   -4.038720    0.901645
C      -2.420490   -2.587450   -0.768428
H       0.173136    1.561545   -1.188993
H      -0.759434    1.936157    0.257197
H       1.025751    1.873326    0.350938
H      -0.240159   -2.517635   -0.295052
H      -1.091763   -2.978505    2.005989
H      -2.168188   -1.566651    1.870571
H      -3.116123   -1.797623   -1.071007
H      -2.268300   -3.270211   -1.606879
