20

O       0.108680    1.300958    0.766578
C       0.075912   -0.029610    0.368781
C       0.059610   -0.423726   -1.085958
C      -1.104447   -0.812451   -0.212988
C      -0.716083   -2.046624    0.609118
C       0.377353   -1.192744    1.331810
N       1.690230   -1.779376    1.547197
C       2.798843   -1.436741    0.661889
C       2.738975   -0.898261    2.048847
H       0.849180    1.733432    0.329673
H      -0.130936    0.412021   -1.753134
H       0.721002   -1.184712   -1.493868
H      -2.109895   -0.464110   -0.409124
H      -1.487687   -2.418029    1.285556
H      -0.325702   -2.883150    0.021954
H      -0.003506   -0.904368    2.317033
H       3.472200   -2.253384    0.415576
H       2.623719   -0.731510   -0.145594
H       2.504424    0.159172    2.159354
H       3.370970   -1.309380    2.831789
