21

C       0.018735    1.505589    0.029676
C       0.009112   -0.010878    0.009370
O       0.713232   -0.418413   -1.134630
C       0.635405   -1.795194   -1.474234
C       1.389090   -2.704228   -0.495377
C       0.632148   -2.928806    0.804709
C       1.278720   -2.646348    2.147638
C       0.214827   -1.732213    1.622885
O       0.619887   -0.459193    1.210188
H       1.050588    1.859075    0.100174
H      -0.427977    1.898033   -0.886378
H      -0.540079    1.872896    0.893242
H      -1.020311   -0.410062   -0.033118
H      -0.419044   -2.108749   -1.551632
H       1.078771   -1.866774   -2.472657
H       1.579973   -3.670096   -0.978878
H       2.365316   -2.247663   -0.303829
H      -0.083971   -3.746164    0.778084
H       1.046072   -3.283085    2.993854
H       2.291639   -2.258976    2.132068
H      -0.764447   -1.751452    2.101871
