16

O      -0.106191    1.375110   -0.049652
C       0.054599    0.009589   -0.056648
C       0.876289   -0.796674   -1.061658
C      -0.058959   -1.998557   -0.724874
O       0.529894   -2.807092    0.305931
C       0.555469   -2.060098    1.461436
N       1.116180   -2.402142    2.540214
C      -0.223257   -0.817851    1.217680
C      -1.044488   -1.016860   -0.035774
H       0.635769    1.771510    0.421334
H       0.703093   -0.427487   -2.076038
H       1.946218   -0.949733   -0.889400
H      -0.391215   -2.648906   -1.529416
H       1.557339   -3.317667    2.437855
H      -0.620300   -0.264703    2.057182
H      -2.119969   -0.944742   -0.116384
