18

O       0.140240    0.132775    0.559995
C       0.016400    1.247793    0.128024
C      -1.147372    2.235086   -0.111321
C      -0.023690    3.273594   -0.442288
C       0.236631    4.370576    0.542034
C       1.289659    4.356365    1.362258
C       2.325357    3.257416    1.408441
C       2.310111    2.378070    0.141476
N       0.948352    2.174924   -0.307547
H      -1.818974    1.983151   -0.933812
H      -1.725306    2.448131    0.789542
H      -0.084851    3.668480   -1.464950
H      -0.463040    5.202366    0.553880
H       1.426628    5.175668    2.063847
H       3.323588    3.689485    1.548483
H       2.143610    2.630125    2.291844
H       2.881188    2.859495   -0.660698
H       2.755623    1.398362    0.329112
