19

C      -0.677926    1.130243    0.593558
C       0.097218   -0.084745    0.150957
O       1.325989    0.136005   -0.553158
C       1.386276   -0.530871    0.710826
C       2.131949    0.170593    1.823064
C       1.847135   -0.485291    3.189568
O       2.206363   -1.840044    3.193452
C       2.579069    0.256328    4.289626
O       3.359466   -0.303076    5.021109
H      -0.035927    1.886057    1.050526
H      -1.173336    1.591298   -0.267316
H      -1.455515    0.847241    1.311654
H      -0.522080   -0.863512   -0.300018
H       1.614853   -1.594313    0.641810
H       3.208214    0.105125    1.622197
H       1.868152    1.232192    1.853604
H       0.767560   -0.376495    3.404126
H       2.845554   -1.939557    3.917046
H       2.362970    1.340164    4.383594
