19

C      -0.009861    1.587020    0.000327
C       0.064378    0.068516   -0.024213
C      -1.302793   -0.556367    0.138143
O      -2.334881    0.056979    0.250734
C       0.807870   -0.662064   -1.155644
C       2.291541   -0.770890   -0.762582
C       2.459145   -0.132163    0.611971
C       1.055566   -0.713209    0.929319
C       1.283646   -1.760180   -0.234729
H       0.955496    2.043128   -0.226361
H      -0.736954    1.938811   -0.737119
H      -0.348432    1.946500    0.977201
H      -1.295956   -1.670044    0.151156
H       0.498138   -0.749614   -2.189677
H       3.042135   -0.939051   -1.523993
H       3.225278   -0.655829    1.190730
H       2.610965    0.947773    0.700517
H       0.758552   -0.932254    1.953231
H       1.221198   -2.836180   -0.293658
