16

N      -0.034704    1.302045   -0.171875
C      -0.012457    0.054232    0.000974
O       1.121617   -0.726660    0.118483
C       0.655463   -2.023508    0.500320
O       0.084944   -1.913264    1.799317
C      -1.294116   -1.687651    1.441955
C      -1.612045   -2.948062    0.609278
C      -0.610262   -2.277881   -0.359769
C      -1.174887   -0.886614    0.083848
H       0.914925    1.678817   -0.195960
H       1.495976   -2.713144    0.486394
H      -1.858542   -1.338760    2.303224
H      -1.356839   -3.909406    1.059107
H      -2.625454   -2.957883    0.202405
H      -0.463442   -2.557258   -1.400990
H      -2.108936   -0.539094   -0.346905
