16

O       0.043786    0.007813    0.080989
C      -0.001876    1.203529   -0.012863
C      -1.266725    2.059764   -0.166805
C      -0.810494    3.360447   -0.857017
C       0.678725    3.495954   -0.543391
C       1.098791    3.347339    0.873854
C       1.194287    2.131086   -0.063980
C       2.483377    1.609662   -0.401919
N       3.529183    1.201870   -0.679939
H      -2.016980    1.500891   -0.728158
H      -1.688575    2.241583    0.828492
H      -0.942909    3.277809   -1.940007
H      -1.372890    4.238105   -0.524896
H       1.302758    4.083985   -1.205482
H       2.052578    3.767673    1.169066
H       0.355629    3.312339    1.663257
