22

C      -0.337406    1.370199    0.091407
N      -0.025759   -0.043214    0.236504
C       1.288661   -0.501451   -0.201782
C       0.930738   -0.508883    1.249980
C       1.633013    0.466971    2.179511
C       0.514978   -1.827572    1.887728
C      -0.656676   -1.664262    2.880697
C      -1.089230   -2.930371    3.457695
C      -1.424515   -3.988539    3.919538
H       0.527820    2.045987    0.173423
H      -0.788251    1.526951   -0.894013
H      -1.073528    1.662963    0.847289
H       1.310300   -1.424208   -0.777466
H       2.003806    0.252762   -0.531298
H       1.992480    1.355039    1.656271
H       0.975894    0.800690    2.990230
H       2.501324   -0.016695    2.639407
H       0.203469   -2.521338    1.102115
H       1.371241   -2.281479    2.400405
H      -0.375573   -0.978864    3.690063
H      -1.492459   -1.193411    2.348641
H      -1.732258   -4.916506    4.333027
