21

C      -0.125944    1.596718    0.101631
C       0.070682    0.085531    0.057149
C      -1.240408   -0.691815    0.154205
O       0.726178   -0.294203   -1.159762
C       2.026167   -0.772084   -0.845140
C       1.891103   -1.182381    0.602963
C       1.892628   -2.610977    1.078932
C       2.993610   -1.641642    1.489101
O       0.954980   -0.273840    1.123380
H       0.838826    2.098711   -0.002157
H      -0.781534    1.915588   -0.712873
H      -0.575062    1.894186    1.053254
H      -1.878269   -0.462249   -0.703824
H      -1.036288   -1.764978    0.157694
H      -1.773993   -0.427413    1.071316
H       2.274348   -1.598762   -1.517101
H       2.777809    0.023296   -0.965891
H       1.165428   -2.878885    1.836998
H       2.132705   -3.398549    0.371894
H       3.983262   -1.765215    1.061171
H       2.984815   -1.279553    2.510963
