17

C       0.505833    1.489919   -0.407417
C       0.015836    0.125208    0.017557
C      -1.338035   -0.289181   -0.518625
O       1.000225   -0.903742    0.031963
C       0.473498   -0.509259    1.296463
C       1.399741    0.177763    2.241444
O       2.446846    0.709217    1.947068
C       0.957668    0.216314    3.711037
O      -0.060604   -0.277166    4.119531
H       1.488738    1.705084    0.011389
H       0.580244    1.522549   -1.499727
H      -0.200810    2.267339   -0.098977
H      -1.328027   -0.265336   -1.613676
H      -1.593935   -1.301615   -0.198898
H      -2.117805    0.397929   -0.175234
H      -0.203243   -1.217258    1.770216
H       1.682994    0.754882    4.356562
