15

C      -0.103405    1.462841    0.106293
N      -0.014337    0.028340   -0.131722
C      -1.120152   -0.765177   -0.059309
C      -1.294421   -2.122250    0.018284
C      -2.708127   -2.267856   -0.008207
N      -3.340943   -1.108833   -0.088972
O      -2.311241   -0.149768   -0.117088
C      -3.441826   -3.482178    0.042776
C      -4.031371   -4.529080    0.088265
H       0.865886    1.911307   -0.119432
H      -0.849280    1.898234   -0.561301
H      -0.380340    1.712006    1.139591
H       0.835749   -0.419319    0.171015
H      -0.549363   -2.895899    0.076011
H      -4.565117   -5.446428    0.127089
