14

C       0.004524    1.466489    0.040282
N      -0.011630    0.016701    0.025420
C      -0.107138   -0.827686   -1.087870
N      -0.098279   -2.106305   -0.803781
C       0.008865   -2.128486    0.573865
C       0.060602   -0.852554    1.067904
O       0.163955   -0.783354    2.386897
N       0.184413   -2.158273    2.833148
C       0.092776   -2.909933    1.756433
H       0.935178    1.840079    0.476906
H      -0.071976    1.826187   -0.987077
H      -0.839224    1.858403    0.615448
H      -0.179928   -0.401999   -2.078753
H       0.092434   -3.982133    1.895032
