16

N      -0.053172    1.393672    0.003791
C       0.064046    0.017895   -0.108791
O       1.139729   -0.535266   -0.245306
N      -1.142741   -0.672486   -0.099859
C      -2.440681   -0.112545   -0.146776
C      -3.388771   -1.041735   -0.037192
C      -2.748645   -2.395774    0.104821
C      -1.254224   -2.102213    0.008125
N      -0.339524   -2.969884    0.026877
H       0.846145    1.834763    0.129202
H      -0.780467    1.766072    0.594879
H      -2.550818    0.948400   -0.311976
H      -4.451627   -0.856819   -0.070306
H      -2.975074   -2.883491    1.060485
H      -3.046485   -3.099610   -0.679946
H       0.574614   -2.524890   -0.066438
