20

C       0.221424    1.304525   -0.176030
O      -0.117255   -0.043984    0.108420
C       0.569902   -0.555717    1.188507
C       1.988089   -1.061316    1.106464
C       3.245205   -0.674842    1.880704
C       0.854543   -2.016588    1.480146
C       0.268583   -1.819057    2.905077
N       1.035616   -0.767576    3.626499
C      -0.006329   -0.396369    2.635970
H       1.284691    1.403584   -0.433843
H      -0.387706    1.614181   -1.028234
H       0.006937    1.966122    0.675364
H       2.189575   -1.230659    0.047839
H       3.531390   -1.448896    2.595878
H       4.077322   -0.536090    1.181189
H       3.112388    0.247708    2.445598
H       0.619780   -2.881029    0.872097
H      -0.319080   -2.550993    3.443280
H       0.611664   -0.673630    4.550447
H      -0.862908    0.213077    2.893480
