19

O      -0.121565    1.377395    0.040960
C      -0.015881   -0.004655   -0.004021
C       0.306117   -0.824600   -1.305611
C      -0.419021   -1.964152   -0.523585
C       0.543788   -2.209583    0.659380
C       0.845999   -0.725267    1.055817
C      -1.302967   -0.841231    0.041291
C      -2.522795   -0.769602    0.833543
O      -2.499758   -0.422316   -0.570645
H       0.760895    1.750986    0.135409
H      -0.269652   -0.465476   -2.159364
H       1.356281   -0.979410   -1.570621
H      -0.852712   -2.824127   -1.029690
H       0.073238   -2.770328    1.471467
H       1.441660   -2.751402    0.349968
H       1.906397   -0.467345    0.960188
H       0.525490   -0.477998    2.071790
H      -3.076356   -1.676021    1.075430
H      -2.682042    0.070099    1.508268
