27

C       0.090288    1.496974   -0.179612
C       0.072428   -0.024787   -0.021470
C       0.706747   -0.507292    1.285108
C       0.573926   -2.022735    1.461608
O       2.070871   -0.100287    1.256149
C       2.713519   -0.022982    2.511716
C       4.131192    0.514416    2.312085
C       4.807061    0.748076    3.668417
C       4.958524   -0.420043    1.420785
H       1.114577    1.873771   -0.127870
H      -0.340649    1.800347   -1.138600
H      -0.488244    1.983707    0.614000
H      -0.957844   -0.398073   -0.063398
H       0.611522   -0.494492   -0.853902
H       0.204594   -0.002553    2.129644
H       1.060954   -2.544743    0.631616
H       1.031210   -2.363421    2.394789
H      -0.480872   -2.315171    1.483232
H       2.146376    0.642295    3.185037
H       2.761106   -1.012183    2.998057
H       4.032675    1.480799    1.799563
H       4.906928   -0.190460    4.226848
H       5.812373    1.160275    3.536895
H       4.237155    1.447376    4.289656
H       4.452797   -0.594017    0.468464
H       5.947663    0.003133    1.217610
H       5.106515   -1.391740    1.908396
