17

C       0.323115   -0.932406    1.339105
C       0.019965    0.050332    0.227350
O       0.196904    1.243955    0.351056
N      -0.467712   -0.493049   -0.970079
C      -0.724551   -1.926376   -1.159838
C      -1.953301   -2.392257   -0.519947
C      -2.955259   -2.785176    0.013973
C      -0.762262    0.371295   -2.025110
N      -1.204765   -0.063109   -3.134318
H       0.591885   -0.356777    2.223791
H      -0.533686   -1.575620    1.556257
H       1.165425   -1.578513    1.068345
H      -0.794625   -2.075118   -2.240790
H       0.131372   -2.502964   -0.797501
H      -3.849116   -3.129879    0.472717
H      -0.558038    1.407070   -1.756935
H      -1.351637    0.708895   -3.780901
