10

N      -0.004464    1.332305    0.130591
C      -0.050580   -0.011257    0.048684
N      -1.108373   -0.780785    0.040888
C      -0.524164   -2.019276   -0.001750
N       0.787751   -2.047046   -0.023960
O       1.113302   -0.679166    0.010271
C      -1.278084   -3.232744   -0.025039
N      -1.897570   -4.207530   -0.044352
H       0.854714    1.796594   -0.112536
H      -0.864715    1.825437   -0.041904
