23

C      -0.038469    1.585682   -0.020543
C       0.034014    0.056488   -0.009776
C       0.731541   -0.501915    1.237510
C       0.781751   -2.032726    1.289358
C       1.629121   -2.674090    0.160317
O       2.160740   -3.896035    0.667955
C       2.238036   -3.786241    2.066258
C       2.928200   -2.585831    2.660835
C       1.410509   -2.631721    2.543042
H       0.963030    2.029613    0.001936
H      -0.546375    1.956170   -0.916429
H      -0.584471    1.962035    0.851839
H      -0.980518   -0.359728   -0.071202
H       0.557178   -0.287780   -0.911342
H       1.754393   -0.105111    1.295551
H       0.212960   -0.132555    2.132138
H      -0.244686   -2.418787    1.224488
H       1.054860   -2.909994   -0.739481
H       2.444802   -1.994576   -0.132081
H       2.279124   -4.755729    2.548228
H       3.347368   -2.696657    3.655211
H       3.497162   -1.929127    2.011377
H       0.814044   -2.683910    3.446606
