14

C      -0.019365    1.454528   -0.004486
N      -0.034385   -0.008354    0.010652
C      -0.141897   -0.702145   -1.174136
N      -0.169749   -1.968644   -1.340222
O      -0.079529   -2.743129   -0.170854
C       0.032337   -2.189678    1.085110
N       0.110993   -2.914593    2.113769
C       0.060441   -0.685344    1.221551
O       0.156264   -0.121845    2.282602
H       0.833137    1.821236   -0.583103
H      -0.945881    1.840755   -0.438509
H       0.068292    1.789130    1.027376
H      -0.211639   -0.106127   -2.077688
H       0.078452   -3.903856    1.857092
