18

C      -0.014724    1.485110    0.017526
C       0.050580   -0.028648   -0.010871
C       0.962110   -0.699820   -1.005460
C       1.202872   -1.953091   -0.595880
C       0.458918   -2.163417    0.685684
C       0.310993   -0.778231    1.346111
C      -1.216963   -1.057316    1.496285
C      -1.344963   -0.749415    0.059642
N      -1.090143   -2.151928    0.492817
H       0.976179    1.919663    0.187042
H      -0.396273    1.883323   -0.929559
H      -0.680103    1.833196    0.814829
H       1.276662   -0.251554   -1.941371
H       1.743467   -2.721296   -1.134619
H       0.722523   -3.017021    1.308096
H       1.018078   -0.378873    2.073318
H      -1.909731   -1.073323    2.326165
H      -2.215913   -0.567358   -0.557497
