21

C       0.198572    1.290836    0.173773
O      -0.303721    0.042088   -0.244782
C       0.470900   -0.557503   -1.247641
C       1.731591   -1.375564   -0.857108
C       0.797212   -2.478681   -0.252782
C       1.436191   -3.847659   -0.487670
C       1.990758   -3.638471   -1.925137
C       1.538902   -2.198074   -2.172152
C       0.103962   -2.009919   -1.578671
H       1.195188    1.203356    0.632021
H       0.268051    2.002211   -0.664442
H      -0.496471    1.690040    0.916468
H       0.591494    0.127829   -2.101117
H       2.679158   -1.018349   -0.448112
H       0.297775   -2.282223    0.693825
H       2.223135   -4.065686    0.241657
H       0.703953   -4.659529   -0.430416
H       3.079241   -3.741965   -1.979437
H       1.559433   -4.334210   -2.652096
H       1.781050   -1.732466   -3.130037
H      -0.834244   -2.378421   -1.997988
