19

C      -0.070115    1.589088   -0.145799
C       1.397295    1.955168    0.109240
O       2.466519    1.917150   -0.866200
C       2.173814    0.734089   -0.127387
C       1.253930   -0.253741   -0.842995
C       0.004152    0.039824    0.006396
C       0.374609   -0.465283    1.434347
O       1.609801   -0.001710    2.002640
C       2.752834    0.145746    1.133220
H      -0.712179    2.076057    0.593854
H      -0.434644    1.863578   -1.141377
H       1.626661    2.593487    0.957285
H       1.128250    0.017564   -1.893686
H       1.596544   -1.290136   -0.777969
H      -0.911489   -0.477862   -0.303942
H      -0.385762   -0.173131    2.166254
H       0.382092   -1.566304    1.385501
H       3.246586   -0.822990    0.971670
H       3.442431    0.816915    1.651442
