16

C       0.002272    1.453230   -0.100221
N      -0.116522    0.025782    0.101122
C       0.578834   -0.625986    1.095416
C       1.210791   -0.006144    2.174871
C       1.844454   -0.791048    3.141362
C       1.844543   -2.168339    3.005635
N       1.252834   -2.783083    1.964480
C       0.665307   -2.034797    1.081940
F       0.083931   -2.651591    0.037302
H       1.042161    1.785193   -0.244731
H      -0.575580    1.733555   -0.982934
H      -0.411353    2.002255    0.753682
H      -0.292698   -0.534712   -0.716245
H       1.206811    1.073535    2.262767
H       2.335816   -0.324142    3.987432
H       2.326566   -2.812651    3.733384
