20

C      -0.627988    1.183047    0.035609
C       0.133573   -0.125331   -0.104103
C       1.533338   -0.111341   -0.793285
C       2.078365   -1.061972    0.312617
C       0.823809   -0.738239    1.130312
C       0.787572   -0.201409    2.521341
C       0.199532   -1.578966    2.229753
C      -1.223878   -1.757097    2.243580
N      -2.373841   -1.890759    2.228924
H      -0.008033    1.954938    0.504830
H      -0.937902    1.554516   -0.946929
H      -1.532305    1.055280    0.640113
H      -0.510641   -0.878698   -0.571792
H       1.581665   -0.470217   -1.823155
H       1.994798    0.879016   -0.744716
H       2.111292   -2.106851   -0.009993
H       3.040045   -0.804017    0.763649
H       1.705093   -0.183273    3.100678
H       0.087722    0.593948    2.753186
H       0.763271   -2.440584    2.573698
