18

C       0.005625    1.392440    0.009255
O       0.010314   -0.016065    0.001722
C      -1.282045   -0.570809    0.011133
C      -1.146084   -2.088542    0.001915
C      -2.524448   -2.781709    0.011409
C      -2.428044   -4.231064    0.002933
C      -2.328260   -5.435245   -0.004416
C      -2.220249   -6.795920   -0.012690
N      -2.127869   -7.954081   -0.019745
H       1.047079    1.721806    0.001185
H      -0.505092    1.803820   -0.875723
H      -0.488271    1.794332    0.908032
H      -1.841005   -0.240274    0.905204
H      -1.857904   -0.231017   -0.868630
H      -0.583297   -2.394440   -0.885057
H      -0.566554   -2.403626    0.874778
H      -3.094745   -2.469845    0.896615
H      -3.111451   -2.460670   -0.859484
