18

C       0.121369    1.306585   -0.315576
N      -0.025266   -0.084853    0.103147
C       0.536678   -0.326186    1.429387
C      -1.365680   -0.580061   -0.041190
C      -1.786950   -1.049176   -1.422249
C      -1.530157   -2.058677   -0.343475
C      -2.382545    0.048130    0.789122
N      -3.139559    0.591158    1.476263
H       1.182771    1.571432   -0.310547
H      -0.258256    1.426340   -1.334027
H      -0.413755    2.015033    0.339174
H       0.034988    0.251063    2.224399
H       0.457776   -1.388874    1.674671
H       1.595671   -0.051868    1.424208
H      -2.809170   -0.864608   -1.729642
H      -1.036064   -0.934640   -2.194586
H      -0.606580   -2.622812   -0.390367
H      -2.374139   -2.574800    0.097886
