19

C      -0.194823    1.458471   -0.160622
C      -0.071172   -0.029414   -0.096296
C      -1.028998   -0.955783    0.002706
C      -2.521164   -0.746647    0.060787
C      -3.044438   -0.397397   -1.323132
O      -3.536732    0.661247   -1.615926
C      -0.403248   -2.325805    0.030409
O       0.997567   -2.113201   -0.062357
C       1.269284   -0.717424   -0.124560
H       0.300395    1.932337    0.696539
H       0.295017    1.851554   -1.060062
H      -1.237086    1.783721   -0.181571
H      -3.013807   -1.667371    0.398960
H      -2.798147    0.061211    0.743232
H      -2.906936   -1.198953   -2.083688
H      -0.645875   -2.868184    0.960448
H      -0.742391   -2.962215   -0.804583
H       1.834375   -0.486633   -1.042560
H       1.905019   -0.416753    0.725036
