19

C      -0.167008    1.599638    0.173908
C      -0.001937    0.099749    0.098961
C       0.972386   -0.492100   -0.984431
C       1.790192   -1.226863    0.117809
C       0.736338   -0.803801    1.167378
O       1.162868   -0.210989    2.358742
C      -0.513505   -1.735185    1.253379
C      -1.224117   -0.806977    0.245863
O      -2.330642   -0.782885   -0.212835
H       0.805073    2.102993    0.165879
H      -0.746468    1.960287   -0.682702
H      -0.692852    1.897608    1.085811
H       0.495479   -1.135100   -1.727907
H       1.528025    0.285442   -1.512665
H       1.957249   -2.299634   -0.013672
H       2.749196   -0.739682    0.310188
H       1.552081   -0.890755    2.920168
H      -0.405104   -2.783772    0.961129
H      -0.989831   -1.682896    2.237978
