16

F      -0.360086   -0.034887    0.222305
C      -0.162867    1.282692    0.055876
F       1.149695    1.482194   -0.083442
F      -0.756708    1.637599   -1.098177
C      -0.735681    2.099558    1.215252
C      -2.227125    1.809671    1.463283
C      -2.177812    0.751932    2.578059
C      -0.932648    1.179785    3.357687
O      -0.037037    1.753510    2.397870
H      -0.547777    3.151571    0.968401
H      -2.718150    2.721630    1.814327
H      -2.743322    1.477294    0.561242
H      -3.077902    0.740732    3.196464
H      -2.037521   -0.243857    2.151341
H      -1.178620    1.932560    4.120712
H      -0.416171    0.350154    3.848607
