16

N       0.085904    1.422475   -0.098150
C       0.065434    0.012777   -0.033320
C      -0.122355   -0.886496   -1.255419
N       0.608118   -2.141430   -0.978172
C       0.007589   -2.038056    0.396335
C      -1.081870   -1.008878   -0.101347
C       0.811942   -0.848552    1.003708
C       2.268720   -0.910581    1.008900
N       3.423690   -0.942015    1.040432
H       0.049593    1.787232   -1.039894
H      -0.627343    1.866596    0.466322
H      -0.249195   -0.475906   -2.249854
H       0.116326   -2.890122   -1.465325
H      -0.142157   -2.954946    0.959561
H      -2.151300   -0.901098    0.020041
H       0.449418   -0.611702    2.007987
