19

O       0.048631    1.414210   -0.066021
C       0.056250    0.004996    0.016244
C       0.207594   -0.544317    1.485503
C      -1.302812   -0.616754    1.514053
C      -2.300668   -0.343069    2.339453
C      -3.672980   -0.098306    1.757772
O      -3.744389   -0.234457    0.347670
C      -2.627577    0.294603   -0.368772
C      -1.409087   -0.539450    0.007675
H       0.931492    1.731808    0.147812
H       0.734450   -0.433196   -0.727822
H       0.694675   -1.526037    1.498586
H       0.705748    0.112326    2.205430
H      -2.169915   -0.185681    3.406960
H      -4.412717   -0.803208    2.157671
H      -4.003099    0.912308    2.062216
H      -2.897594    0.224772   -1.425851
H      -2.452377    1.348917   -0.118315
H      -1.445256   -1.521925   -0.475626
