21

C       0.127643    1.356720    0.680803
C      -0.034069    0.041570   -0.084822
C      -1.348680   -0.668280    0.238594
C      -1.550585   -1.949789   -0.551233
O      -0.800304   -2.299983   -1.435819
C      -2.767994   -2.795423   -0.226484
C      -3.312387   -3.625366   -1.364030
C      -2.951804   -3.235637    1.174730
O      -3.732576   -2.175811    0.639970
H       1.075448    1.843771    0.432099
H      -0.679431    2.058735    0.442690
H       0.112213    1.194474    1.764633
H       0.016055    0.221806   -1.163567
H       0.801861   -0.630543    0.139905
H      -1.431460   -0.882272    1.311998
H      -2.212761   -0.022433    0.027758
H      -2.525963   -4.267326   -1.766575
H      -4.148779   -4.239159   -1.022367
H      -3.662514   -2.980351   -2.175743
H      -3.481088   -4.170498    1.354959
H      -2.233047   -2.954153    1.942805
