23

O       0.065774    1.441866   -0.140833
C       0.074138    0.050318    0.088942
C      -1.347056   -0.519129    0.057029
O      -1.986299   -0.081937   -1.152091
C      -1.394222   -2.036349    0.233808
C      -2.800504   -2.624895    0.254101
C      -3.615969   -2.757932   -1.064441
C      -4.153660   -4.119451   -0.549470
C      -2.967632   -4.158356    0.451874
H      -0.595861    1.577405   -0.832381
H       0.689461   -0.479790   -0.662597
H       0.535109   -0.122319    1.067925
H      -1.926709   -0.034973    0.852658
H      -1.625535   -0.604117   -1.878544
H      -0.806596   -2.513867   -0.566048
H      -0.881889   -2.285907    1.173532
H      -3.403957   -2.093690    1.000393
H      -4.331222   -1.969420   -1.304494
H      -2.952311   -2.897000   -1.925720
H      -5.112725   -4.007279   -0.035462
H      -4.240494   -4.938692   -1.266904
H      -2.112760   -4.704799    0.038381
H      -3.155266   -4.526013    1.464057
