20

C       0.166041    1.514452    0.097675
N      -0.160495    0.117553   -0.174624
C       0.647728   -0.476611   -1.209796
C       2.038181   -1.063608   -0.810974
N       1.408032   -2.402027   -0.718714
C       0.251107   -1.970672   -1.546224
C      -1.107048   -2.503515   -1.102222
C       0.456575   -2.238426   -2.981031
N       0.650099   -2.466172   -4.098846
H       1.218418    1.693096    0.376880
H      -0.050038    2.117279   -0.791000
H      -0.467264    1.880071    0.910627
H      -0.078280   -0.425289    0.679042
H       0.653017    0.192197   -2.072177
H       2.785586   -0.961957   -1.608407
H       2.468348   -0.708197    0.131624
H       1.945588   -3.180668   -1.085560
H      -1.267226   -2.286626   -0.045663
H      -1.911562   -2.042806   -1.681330
H      -1.150274   -3.587048   -1.247631
