20

C      -0.181431    1.556637   -0.204008
C      -0.045821    0.032040   -0.177214
C       0.890439   -0.553610   -1.249971
C       2.341025   -0.115974   -1.100962
C       0.724935   -2.082377   -1.354507
O      -0.280912   -2.244708   -2.355810
C      -0.345118   -1.102134   -3.103314
N      -1.012858   -0.925560   -4.153964
O       0.426384   -0.136395   -2.557749
H       0.756561    2.057616    0.054096
H      -0.488562    1.899076   -1.195402
H      -0.935565    1.882832    0.517841
H       0.316444   -0.301926    0.803423
H      -1.034304   -0.423653   -0.313839
H       2.742535   -0.458449   -0.141825
H       2.949981   -0.536557   -1.905288
H       2.428891    0.971647   -1.140335
H       1.648027   -2.577221   -1.679446
H       0.373784   -2.541433   -0.427735
H      -1.484217   -1.788634   -4.414185
