14

F       0.069419    0.008606   -0.274544
C      -0.076980    1.318925   -0.111815
C      -1.223948    1.917318    0.199920
N      -1.213983    3.310963    0.337101
C      -0.109282    4.134894    0.176527
N      -0.099437    5.405086    0.300226
C       1.182552    3.428115   -0.177914
N       2.247238    4.104784   -0.344518
N       1.086163    2.039772   -0.295854
H      -2.150828    1.389652    0.351517
H      -2.080591    3.766512    0.571189
H      -1.027575    5.760699    0.539294
H       3.039933    3.503766   -0.578901
H       1.919997    1.522979   -0.530164
