19

C       0.008331    1.533975   -0.007804
C       0.029030    0.019134   -0.045048
C      -1.208539   -0.640393    0.540182
C       0.641914   -0.764186   -1.185722
C       1.915933   -0.115976   -1.733336
N       2.469628    0.047292   -0.346136
C       1.329248   -0.734737    0.192588
C       1.511174   -1.754986    1.169461
N       1.680097   -2.578373    1.966799
H       0.973754    1.959485   -0.283996
H      -0.759959    1.921405   -0.685971
H      -0.232676    1.882386    1.002131
H      -2.098786   -0.333143   -0.018927
H      -1.149046   -1.732023    0.505880
H      -1.347989   -0.346788    1.585384
H       0.109349   -1.580998   -1.657010
H       2.496897   -0.815463   -2.341162
H       1.806284    0.827862   -2.277242
H       3.339737   -0.462791   -0.238003
