20

O       0.048020    1.451118    0.000403
C       0.060918    0.035236    0.099403
C      -1.337415   -0.563629    0.092204
C      -2.122865   -0.578184   -1.259724
C      -2.618493   -2.005959   -0.934553
O      -2.606970   -2.892631   -2.026394
C      -1.507186   -2.092482    0.118289
C      -0.441427   -3.114810    0.182280
N      -1.490568   -3.039528    1.224564
H      -0.359687    1.679395   -0.841405
H       0.661329   -0.418638   -0.705075
H       0.566255   -0.186890    1.046976
H      -1.931305   -0.087682    0.881209
H      -2.879581    0.190229   -1.425853
H      -1.441180   -0.613528   -2.115925
H      -3.602448   -1.985911   -0.444191
H      -3.026380   -3.713601   -1.749537
H      -0.498786   -3.985146   -0.465235
H       0.568767   -2.803833    0.435494
H      -1.117146   -2.602837    2.065041
