21

C       0.000076    1.587811    0.092297
C       0.000710    0.065964   -0.012114
C       0.280901   -0.401057   -1.445096
C       0.372061   -1.886296   -1.696066
C       0.797876   -2.869433   -0.900135
C       1.360913   -2.789875    0.504886
O       2.781071   -2.633110    0.461573
C       0.747613   -1.720139    1.404071
O       0.971921   -0.409431    0.916551
H       0.984981    1.987086   -0.170213
H      -0.741159    2.025501   -0.582913
H      -0.231745    1.896861    1.114480
H      -0.986693   -0.318681    0.290504
H      -0.505985    0.013425   -2.087844
H       1.214357    0.071737   -1.788699
H       0.092322   -2.172898   -2.708977
H       0.835192   -3.867733   -1.331069
H       1.199727   -3.757124    0.996721
H       2.932763   -1.720803    0.185017
H      -0.327277   -1.906448    1.547706
H       1.244613   -1.772621    2.378686
