21

C       0.060347    0.995060   -1.424171
C      -0.251033    0.617403    0.028217
C      -1.467256   -0.301071    0.124365
C      -1.374675   -1.737810   -0.417389
C      -0.501194   -2.603154    0.446919
C      -1.904660   -2.306844    0.897712
C      -1.981563   -0.877544    1.499179
C      -1.210846   -0.748912    2.783440
O      -0.057373   -0.409803    2.893569
H       0.928649    1.658291   -1.482638
H       0.281360    0.106578   -2.025924
H      -0.785072    1.511030   -1.894321
H       0.618438    0.143839    0.489605
H      -0.441292    1.524790    0.614580
H      -2.319759    0.201125   -0.347584
H      -1.645808   -2.037236   -1.422520
H      -0.345995   -3.612041    0.078554
H       0.347330   -2.188008    0.982895
H      -2.642033   -3.082132    1.062777
H      -3.020258   -0.590469    1.691130
H      -1.792004   -1.063119    3.683729
