18

C       0.041372   -1.204986   -0.004186
C       0.010727   -0.003816    0.001927
C       0.004006    1.453526    0.009078
C       1.423602    2.053849   -0.000143
C       1.393161    3.574880    0.007525
O       2.731917    4.042489   -0.001677
C       2.812134    5.444189    0.004466
C       4.221254    5.848847   -0.005558
N       5.320993    6.199515   -0.013213
H       0.057634   -2.266627   -0.009488
H      -0.556775    1.819112   -0.861530
H      -0.541773    1.810569    0.892669
H       1.980847    1.700971    0.872876
H       1.965799    1.709541   -0.885966
H       0.851610    3.958784   -0.873889
H       0.866840    3.950140    0.901793
H       2.315062    5.884828   -0.875809
H       2.330156    5.876192    0.897325
