20

C      -0.064519    1.469222   -0.046477
C      -0.011698   -0.020610    0.067797
C      -1.008101   -0.891948    0.212112
C      -2.457426   -1.165188   -0.128036
C      -1.926769   -2.503460   -0.768937
C      -0.598576   -2.329191    0.053762
C       0.831373   -2.231995   -0.513932
C       1.296234   -0.811868   -0.056041
H       0.480491    1.953459    0.774832
H       0.405328    1.817302   -0.975845
H      -1.093964    1.838129   -0.023877
H      -3.085436   -1.365514    0.747321
H      -2.976618   -0.451890   -0.773645
H      -2.517430   -3.405177   -0.587960
H      -1.755619   -2.389804   -1.842764
H      -0.644979   -2.914996    0.981062
H       1.502634   -3.028620   -0.179383
H       0.802076   -2.264268   -1.609314
H       1.980975   -0.348023   -0.776488
H       1.841596   -0.854835    0.898261
