21

C      -0.148453    1.550838   -0.093882
C      -0.076763    0.040782   -0.241304
O      -1.252655   -0.516620    0.331080
C      -1.348361   -1.897990    0.211050
C      -1.694675   -2.522603   -1.126012
C      -2.691450   -2.565886    0.016377
C      -2.727291   -3.806058    0.906342
C      -1.342770   -3.837941    1.523560
C      -0.605425   -2.786716    1.161308
H       0.742449    2.018633   -0.523655
H      -1.030489    1.944451   -0.607196
H      -0.213985    1.831736    0.961101
H      -0.003039   -0.246978   -1.301061
H       0.819316   -0.352182    0.264070
H      -1.940621   -1.838472   -1.932132
H      -1.184130   -3.430954   -1.430804
H      -3.579007   -1.953555   -0.085110
H      -3.507053   -3.734769    1.676267
H      -2.941250   -4.718883    0.335100
H      -1.008274   -4.649939    2.159627
H       0.411965   -2.586233    1.476648
