10

F       0.050532    0.070338    0.187778
C      -0.002010    1.372393    0.054610
C      -1.165616    2.027286   -0.072113
N      -1.183775    3.413249   -0.211925
N      -0.180591    4.114352   -0.229388
O       1.132219    3.451260   -0.093895
C       1.268300    2.093500    0.049080
N       2.382214    1.505030    0.166399
H      -2.128641    1.536552   -0.073556
H       3.153116    2.173797    0.139896
