15

N      -0.063272    1.539864   -0.129693
C      -0.010653    0.280606   -0.145084
C      -1.209719   -0.599281    0.069921
C      -2.509338    0.205792    0.223531
C      -3.663215   -0.665007    0.433275
N      -4.566972   -1.365089    0.599989
O       1.112102   -0.498797   -0.396158
C       2.322180   -0.120850    0.121558
O       3.332770   -0.663268   -0.188481
H       0.824244    1.991850   -0.344654
H      -1.279268   -1.295503   -0.773152
H      -1.032487   -1.223804    0.953112
H      -2.423863    0.901996    1.062867
H      -2.677150    0.821277   -0.665324
H       2.229635    0.696131    0.856581
