20

C      -0.251562    1.370203    0.131605
C       0.461999    0.016419    0.154110
C       0.461234   -0.670743   -1.210539
C       1.145169   -2.023643   -1.233721
O       1.592050   -2.535570   -0.226236
C       1.257253   -2.697768   -2.598410
C       0.948741   -4.205486   -2.648000
N       1.533629   -4.936600   -1.662292
O       0.280374   -4.675150   -3.546540
H       0.223173    2.061317   -0.573992
H      -1.300638    1.264153   -0.166607
H      -0.233430    1.840378    1.119245
H       1.497213    0.140879    0.490450
H      -0.008798   -0.647724    0.886416
H      -0.565100   -0.823167   -1.578199
H       0.936619   -0.040605   -1.976843
H       0.621205   -2.213465   -3.339928
H       2.298972   -2.565800   -2.921824
H       1.866073   -4.453088   -0.838214
H       1.271339   -5.907474   -1.597772
