16

C      -0.024981    1.367026    0.054531
N      -0.018011   -0.087719    0.064258
C      -1.095104   -0.701707   -0.146784
N      -2.472248   -0.312380   -0.345527
C      -2.890058   -1.703376    0.016703
C      -2.401393   -2.602363   -1.077899
C      -1.414738   -2.159845   -0.027684
O      -0.647296   -3.070382    0.650886
H       0.834137    1.722737   -0.523127
H      -0.933511    1.811951   -0.374217
H       0.100977    1.746549    1.076264
H      -2.788424    0.406914    0.297026
H      -3.701985   -1.900965    0.702283
H      -2.668754   -3.649045   -0.961750
H      -2.352769   -2.239605   -2.101360
H      -0.123958   -2.575032    1.293623
