19

C       0.182195    1.485567   -0.027023
C       0.028120   -0.008537   -0.053553
C       0.653713   -0.937346   -1.124626
C       0.583535   -1.883802    0.086362
O       0.813843   -0.733586    0.955867
C      -0.928691   -2.120708    0.303167
C      -1.381831   -0.620809    0.161779
C      -1.607691   -3.061798   -0.655355
O      -1.082724   -3.566684   -1.617708
H       1.230469    1.769416   -0.152197
H      -0.400723    1.942942   -0.833160
H      -0.174440    1.892718    0.924866
H       0.095317   -1.184610   -2.028448
H       1.681316   -0.648923   -1.348563
H       1.267644   -2.715407    0.244894
H      -1.125140   -2.474107    1.321598
H      -1.853112   -0.239425    1.069670
H      -2.051660   -0.442377   -0.684918
H      -2.676103   -3.273150   -0.416872
