17

C      -0.193452    1.454448    0.045532
C       1.297324    1.440273   -0.388028
C       1.501582    0.180826    0.499642
C      -0.047292   -0.033776    0.458535
C       2.406431   -0.904949    0.044499
C       3.034578   -1.138200   -1.139009
O       3.732682   -2.269715   -1.056747
N       3.521620   -2.767857    0.266142
N       2.763622   -1.964130    0.862410
H      -0.354164    2.101256    0.912505
H      -0.938475    1.699415   -0.713768
H       1.394181    1.201925   -1.452019
H       1.912930    2.315585   -0.169833
H       1.792496    0.477571    1.512116
H      -0.530569   -0.369711    1.377816
H      -0.325580   -0.709722   -0.354993
H       3.077892   -0.604932   -2.073826
