15

C      -0.030848    1.505669    0.017323
C      -0.013675    0.002141   -0.014006
C       0.235500   -0.722766   -1.176346
N       0.256532   -2.057065   -1.219498
C       0.012912   -2.696683   -0.074746
N      -0.031947   -4.075747   -0.109719
C      -0.237261   -1.973791    1.110011
N      -0.247013   -0.652643    1.137885
H       0.182285    1.925958   -0.969143
H      -1.007215    1.876606    0.346344
H       0.712422    1.889173    0.724044
H       0.433352   -0.208683   -2.114535
H       0.401853   -4.479700   -0.926649
H       0.168922   -4.561173    0.750382
H      -0.431231   -2.495779    2.045766
