20

C       0.003248    1.581518   -0.020070
C       0.133255    0.058095    0.015142
C       0.786825   -0.511969   -1.252823
O       2.064446    0.104751   -1.386361
C       0.915758   -2.033222   -1.122028
C       1.733566   -2.359743    0.119318
O       1.196919   -1.759463    1.304946
C       0.820676   -0.441794    1.278296
N       0.921784    0.282739    2.310376
H       0.988164    2.047956   -0.075198
H      -0.574954    1.887458   -0.898624
H      -0.495898    1.944109    0.878761
H      -0.874902   -0.381915    0.046372
H       0.151216   -0.257911   -2.114327
H       2.447627   -0.169764   -2.225294
H      -0.081423   -2.483576   -1.054551
H       1.407017   -2.460253   -2.005317
H       1.752288   -3.433245    0.321333
H       2.764711   -2.012061   -0.015227
H       1.367397   -0.249476    3.060908
