21

C       0.034284    1.636202   -0.014581
C       0.019861    0.106020   -0.055868
C      -1.398394   -0.474917   -0.014820
C      -1.425036   -2.005447   -0.053736
C      -0.857268   -2.617094    1.226120
O      -0.376215   -3.717580    1.305797
C      -2.861229   -2.563299   -0.203771
C      -2.960973   -3.977704   -0.729818
O      -3.821024   -1.893998    0.091716
H       1.056038    2.025648   -0.052709
H      -0.516678    2.058943   -0.861828
H      -0.432655    2.011674    0.902445
H       0.527502   -0.243159   -0.964833
H       0.608594   -0.286950    0.784355
H      -1.922751   -0.136313    0.886867
H      -1.985168   -0.088104   -0.854957
H      -0.825238   -2.407014   -0.879090
H      -0.957341   -1.963808    2.121906
H      -2.224698   -4.622206   -0.240202
H      -3.972308   -4.361003   -0.589399
H      -2.722473   -3.977714   -1.800521
