20

C      -0.092149    1.528875   -0.032545
C       0.005205    0.008312    0.001493
O      -1.266375   -0.598751   -0.127103
C       1.146704   -0.568350   -0.891568
O       1.541474    0.270437   -1.951279
C       2.052440   -0.693884    0.373029
C       0.778729   -0.553055    1.208228
C       0.522350   -0.326909    2.643046
N       0.263838   -1.645281    2.026367
H       0.881443    1.996574    0.130951
H      -0.451704    1.869170   -1.010148
H      -0.782005    1.875044    0.742986
H      -1.784121   -0.097726   -0.765386
H       0.840384   -1.561359   -1.246054
H       2.255070   -0.160998   -2.431276
H       2.611370   -1.622401    0.501757
H       2.724646    0.164297    0.468173
H       1.347810   -0.306629    3.349958
H      -0.326277    0.295168    2.919656
H      -0.732036   -1.744462    1.834499
