16

O       0.117342    1.305694    0.187169
C       0.109744   -0.079488   -0.103683
C      -1.307122   -0.622246   -0.082084
C      -1.609492   -2.130048   -0.135461
C      -2.703626   -1.809518    0.960555
C      -1.611372   -1.815323    1.999613
N      -2.006850   -0.556895    1.270648
C      -0.802366   -2.672542    1.067488
O      -0.031720   -3.576044    1.216752
H      -0.352154    1.421871    1.021266
H       0.538645   -0.195846   -1.105264
H       0.749332   -0.644079    0.593133
H      -1.934863   -0.044540   -0.766106
H      -1.700962   -2.707665   -1.050897
H      -3.760722   -2.008429    1.064257
H      -1.680562   -1.809121    3.078197
