17

O       0.030447    1.471527   -0.103844
C      -0.075260    0.095902    0.003207
C       0.999261   -0.589927   -0.770642
O       1.827032    0.039037   -1.389688
C      -0.449602   -0.698708    1.243783
C      -1.623483   -0.129619    2.084446
C      -2.232049    1.144549    1.561119
C      -2.521106   -0.156956    0.860959
C      -1.354782   -0.725457    0.010264
H       0.805875    1.613748   -0.673760
H       0.998631   -1.697345   -0.747217
H       0.196975   -1.479796    1.628753
H      -1.830907   -0.512279    3.074863
H      -3.065365    1.494470    2.164581
H      -1.638341    1.923694    1.108095
H      -3.519670   -0.563770    0.772901
H      -1.509281   -1.529980   -0.700523
