15

O      -0.016936   -0.007227    0.238796
C       0.041688    1.150910   -0.076008
C       1.273907    1.978298   -0.053174
C       1.178077    3.466692    0.155014
C       1.603101    2.933905   -1.199534
C       3.075619    2.749691   -1.408893
O       3.744391    3.181488   -2.309458
C       3.571929    1.833436   -0.281122
O       2.431076    1.349458    0.414353
H      -0.852792    1.720971   -0.418578
H       0.192403    3.917725    0.195244
H       1.917921    3.918546    0.806265
H       0.968581    3.088806   -2.062630
H       4.133918    0.992978   -0.702412
H       4.240365    2.386081    0.392607
