21

C       0.007340    1.274052   -0.530389
C      -0.008393   -0.194977   -0.095132
C      -1.412188   -0.704858    0.158053
O      -2.298740   -0.612764   -1.005284
C      -2.707653   -1.984397   -0.866215
C      -1.858377   -2.974837   -1.688077
C      -1.308926   -2.556816   -3.032177
O      -0.855066   -3.010672   -0.623111
C      -1.678794   -2.219432    0.251771
H       1.027519    1.611536   -0.735295
H      -0.587274    1.411467   -1.437915
H      -0.411741    1.925167    0.244905
H       0.463511   -0.828581   -0.851703
H       0.568448   -0.323713    0.830445
H      -1.875497   -0.166345    0.999241
H      -3.791087   -2.108144   -0.819573
H      -2.347022   -3.958269   -1.750705
H      -0.957169   -1.523821   -2.998561
H      -0.479340   -3.210495   -3.318139
H      -2.086246   -2.637296   -3.799755
H      -1.840660   -2.682222    1.226902
