20

C      -0.202539    1.549597    0.041007
C       0.158455    0.098741   -0.014133
N      -0.690936   -0.960042    0.638585
C       0.738853   -0.847123    1.004154
C       1.591283   -1.539547   -0.092249
C       1.512089   -2.947766   -0.697374
C       1.475438   -2.628336   -2.233484
C       0.762897   -1.273301   -2.299887
C       0.839722   -0.703315   -1.103892
H       0.649133    2.177249   -0.240530
H      -1.027166    1.778948   -0.643995
H      -0.515258    1.836615    1.050835
H      -1.216020   -0.487093    1.377057
H       1.031360   -0.651029    2.029509
H       2.628356   -1.191799    0.016227
H       2.334245   -3.614360   -0.421270
H       0.567243   -3.419338   -0.409782
H       2.490405   -2.584670   -2.655721
H       0.938497   -3.395110   -2.802773
H       0.230872   -0.926784   -3.178060
