19

C      -0.007271    1.586206   -0.095381
C       0.027663    0.047248   -0.004152
C       0.639088   -0.489471   -1.225357
N       1.104895   -0.894992   -2.202255
C       0.758502   -0.503170    1.273090
C       0.021234   -0.055537    2.543198
C       0.843079   -2.030556    1.221801
O       2.107215   -0.046644    1.293517
H       1.006427    1.996339   -0.098492
H      -0.492393    1.901578   -1.021844
H      -0.564525    2.015933    0.739882
H      -1.004312   -0.325133    0.024159
H      -1.017688   -0.400014    2.548252
H       0.525291   -0.473523    3.418486
H       0.013144    1.034117    2.649882
H       1.426809   -2.353681    0.357396
H       1.333576   -2.400472    2.125592
H      -0.153928   -2.476760    1.157980
H       2.115469    0.878243    1.559984
