17

C       0.142595    1.507999   -0.348022
C       0.061771    0.016330   -0.110711
C       1.230036   -0.830062   -0.398423
O       0.891639   -0.487181    0.947844
C      -1.309854   -0.625181   -0.153371
C      -2.456291   -0.048559    0.703682
O      -3.230211    0.239188   -0.507201
C      -2.233517   -0.234152   -1.320368
O      -2.209718   -0.259818   -2.507885
H       1.177329    1.845060   -0.258079
H      -0.222751    1.758788   -1.348903
H      -0.454264    2.064063    0.382030
H       1.093535   -1.876748   -0.666307
H       2.137519   -0.368898   -0.784663
H      -1.211489   -1.708601   -0.057877
H      -2.983837   -0.760237    1.340365
H      -2.241963    0.870204    1.251443
