21

C       0.048382    1.531217    0.099941
C      -0.121913    0.019723   -0.091761
C       0.705093   -0.544369   -1.246167
C       2.247168   -0.516226   -1.146895
C       2.498343   -1.484438    0.016170
O       1.464017   -2.475888   -0.164794
C       0.757113   -2.081235   -1.352743
C       1.709943   -2.257862   -2.539863
O       2.655559   -1.180662   -2.352037
H       1.078759    1.792020    0.363889
H      -0.206042    2.079006   -0.814222
H      -0.599941    1.900928    0.900151
H       0.123785   -0.508562    0.834760
H      -1.178719   -0.200233   -0.290186
H       0.399466   -0.086860   -2.193001
H       2.753629    0.446355   -1.088864
H       3.486958   -1.948165   -0.066108
H       2.399912   -1.020144    1.005598
H      -0.181418   -2.633349   -1.402264
H       2.225044   -3.223709   -2.499867
H       1.213738   -2.151879   -3.513298
