19

C      -0.119201    1.532378   -0.088627
C       0.010519    0.029719    0.033281
C       1.332698   -0.661467   -0.206041
C       0.735639   -0.638181    1.183282
C       1.382032    0.128146    2.294693
C       0.743790    0.167686    3.662740
C       2.018511   -0.610873    3.447332
H       0.793151    2.047832    0.225191
H      -0.315442    1.822430   -1.126911
H      -0.942449    1.914691    0.525335
H      -0.864222   -0.510326   -0.321643
H       1.351946   -1.596141   -0.756292
H       2.197774   -0.028260   -0.382169
H       0.295202   -1.575727    1.517155
H       1.891832    1.036664    1.988173
H       0.790989    1.090292    4.230925
H      -0.173997   -0.393536    3.805920
H       1.956297   -1.694405    3.445451
H       2.939342   -0.221701    3.867799
