19

C      -0.388122    1.352901   -0.245224
C      -0.079379   -0.126158   -0.008253
C       0.722478   -0.391816    1.268283
O      -0.053919    0.033044    2.400318
C       0.471360    0.947421    3.238621
O      -0.095943    1.328091    4.217273
C       1.078821   -1.861160    1.403111
C       0.910825   -2.632650    2.639705
O      -0.002977   -2.774343    1.547208
H       0.529699    1.946816   -0.325439
H      -0.949532    1.485434   -1.174263
H      -0.989545    1.766204    0.569079
H      -1.003350   -0.709973    0.054562
H       0.493591   -0.532165   -0.850914
H       1.660881    0.183364    1.244932
H       1.470960    1.300844    2.917229
H       1.844883   -2.180457    0.692947
H       1.555400   -3.490883    2.823657
H       0.499251   -2.149827    3.521820
