16

C      -0.271484    1.515684   -0.035501
C       0.162236    0.107796    0.250476
N       1.231802   -0.182879    0.846881
O      -0.806841   -0.755269   -0.258452
C      -0.774742   -2.096487   -0.052752
C      -1.897231   -2.883524    0.011588
N      -1.406046   -4.165256    0.158835
C      -0.052442   -4.089100    0.183729
N       0.364869   -2.846146    0.050978
H       0.482283    2.207244    0.337995
H      -0.403687    1.659504   -1.112587
H      -1.235092    1.724878    0.439839
H       1.370083   -1.191694    0.907948
H      -2.947276   -2.657994   -0.039890
H      -1.957872   -5.003065    0.231747
H       0.579758   -4.956027    0.297134
