16

C       0.028646    1.537463   -0.045183
C       0.116321    0.029987   -0.046685
O       0.910436   -0.424782   -1.119850
C       1.300786   -1.731237   -0.750486
C       1.454752   -1.638422    0.799888
O       0.766563   -0.428957    1.131433
C       0.915129   -2.800274    1.499479
C       0.481480   -3.769467    2.062219
H       1.033169    1.964111    0.003224
H      -0.467747    1.882727   -0.955584
H      -0.547244    1.874234    0.820037
H      -0.886328   -0.432886   -0.108992
H       0.532119   -2.471138   -1.012308
H       2.233799   -1.980576   -1.258620
H       2.506618   -1.503085    1.078587
H       0.099059   -4.621671    2.567866
