21

C       0.049348    1.408651   -0.050523
C       1.376814    0.691862    0.016746
C       2.045530    0.526761    1.369088
C       0.911445    0.019794    2.301923
C      -0.066442   -0.761986    1.382193
C       0.080320   -0.099276    0.024788
C       0.038423   -0.818034   -1.307628
O       0.975321   -0.130078   -2.142645
C       2.023092    0.393043   -1.319942
H      -0.285639    1.966437    0.817251
H      -0.224930    1.848441   -1.003896
H       2.837588   -0.228399    1.284795
H       2.513112    1.439711    1.753361
H       1.289786   -0.591848    3.125612
H       0.395506    0.869957    2.759473
H       0.242112   -1.812183    1.300904
H      -1.088650   -0.758113    1.775708
H       0.325051   -1.874828   -1.171060
H      -0.924616   -0.788323   -1.828280
H       2.432356    1.260159   -1.849108
H       2.833025   -0.344423   -1.186625
