19

O       0.203210    1.401462    0.178775
C       0.078407   -0.005310    0.037010
C      -1.396549   -0.509365   -0.048219
C      -1.290289   -1.793356   -0.888105
C      -2.356154   -2.269415   -1.903079
C      -1.505252   -2.682959   -3.093254
C      -0.232192   -2.259762   -2.993042
C      -0.073634   -1.515674   -1.753719
C       0.705072   -0.562508   -1.232253
H      -0.135487    1.798608   -0.631808
H       0.567484   -0.404983    0.936592
H      -1.856109   -0.643614    0.934482
H      -1.977487    0.248145   -0.590156
H      -1.057044   -2.639678   -0.225968
H      -2.985502   -3.082493   -1.526945
H      -3.038107   -1.456542   -2.194638
H      -1.918975   -3.205100   -3.949339
H       0.534050   -2.381981   -3.748824
H       1.637847   -0.177705   -1.627731
