19

C      -0.043085    1.543457   -0.109079
C      -0.015944    0.035533    0.088285
O      -0.075119   -0.476545    1.192656
N       0.057479   -0.690900   -1.068499
C       0.049723   -2.165631   -1.119990
C       1.279020   -2.754714   -0.391495
C      -1.264657   -2.739068   -0.543372
C       0.132880   -2.519238   -2.550502
N       0.197310   -2.793143   -3.671086
H       0.323538    1.863987   -1.087582
H      -1.071788    1.898041    0.010324
H       0.559345    2.005714    0.674670
H       0.097438   -0.200517   -1.946478
H       1.230559   -2.471115    0.659818
H       1.278779   -3.844149   -0.477299
H       2.203231   -2.368765   -0.827825
H      -2.125864   -2.343614   -1.087064
H      -1.267247   -3.828581   -0.627926
H      -1.338603   -2.454514    0.506279
