18

C      -0.146673    1.016903    1.050519
C      -0.018959    0.139274   -0.185795
O       1.127396   -0.731630   -0.130291
C       1.005421   -1.816670    0.671638
C       1.348500   -2.044747    1.976244
C       1.047896   -3.419123    2.269008
C       0.534740   -3.963470    1.120319
O       0.088498   -5.203837    0.787611
N       0.493875   -2.999932    0.150498
H       0.750085    1.629660    1.180957
H      -1.011079    1.681879    0.951668
H      -0.284234    0.404672    1.945913
H      -0.926766   -0.460713   -0.334326
H       0.136613    0.747442   -1.081793
H       1.774770   -1.318086    2.649150
H       1.192192   -3.929348    3.208739
H       0.207780   -5.778037    1.549993
H       0.248894   -3.155388   -0.812170
