18

C      -0.029180    1.532235   -0.045376
C       1.533913    1.535882    0.000968
C       1.451201    0.102319    0.504192
C       2.192414   -0.710616    1.236019
C       1.740432   -2.059700    1.736732
N       0.345777   -2.436522    1.794815
C      -0.700781   -1.819003    1.468278
O      -0.958606   -0.618725    0.875811
C       0.020818   -0.013282    0.045301
H      -0.460131    1.948229    0.867593
H      -0.520382    1.968244   -0.916579
H       1.984444    1.622448   -0.993526
H       2.010048    2.266043    0.659159
H       3.203359   -0.421530    1.521229
H       2.266261   -2.846350    1.171749
H       2.119558   -2.181476    2.762131
H      -1.662712   -2.280225    1.699567
H      -0.048122   -0.475020   -0.950127
