18

C      -0.007103    1.401916   -0.111018
O       0.151005    0.004555   -0.050703
C      -1.063985   -0.671479   -0.015283
C      -0.845165   -2.175624    0.026946
N       0.302681   -2.694819   -0.044039
N      -2.087414   -2.845905    0.133023
C      -2.268089   -4.220128    0.200793
N      -3.597352   -4.592284    0.319824
O      -1.360361   -5.028456    0.199208
H       0.993832    1.837614   -0.136203
H      -0.555182    1.714330   -1.014615
H      -0.544335    1.793026    0.768211
H      -1.662031   -0.374979    0.869533
H      -1.684678   -0.431138   -0.900542
H       0.232562   -3.712291    0.005052
H      -2.901326   -2.268353    0.278646
H      -4.305529   -4.014981   -0.107393
H      -3.735699   -5.583514    0.193030
