16

N       0.016226    1.395743    0.194463
C       0.069733   -0.027352    0.008730
C      -1.347880   -0.671565   -0.158580
N      -1.100756   -0.763395   -1.627737
C       0.356845   -0.612734   -1.439358
C       1.021128    0.277834   -2.384749
N       1.564337    1.014945   -3.090685
C      -1.527046   -1.943547    0.523698
C      -1.667363   -3.013179    1.055769
H       0.948891    1.796250    0.210236
H      -0.486631    1.844923   -0.565882
H       0.689530   -0.475314    0.784846
H      -2.165265    0.013885    0.089623
H      -1.392400   -1.632117   -2.062482
H       0.913687   -1.556944   -1.382211
H      -1.801182   -3.951007    1.536509
