17

C      -0.097874    1.399737    0.147772
O      -0.088967   -0.023337   -0.009341
C      -1.283569   -0.629445    0.041242
N      -2.379782   -0.026012    0.216798
C      -3.649189   -0.734333    0.274427
C      -4.468646   -0.168344    1.438346
O      -4.682774    1.219106    1.298381
C      -1.132695   -2.065194   -0.137772
N      -1.075609   -3.211530   -0.272307
H       0.944538    1.705349    0.063918
H      -0.702906    1.869085   -0.632392
H      -0.502185    1.676541    1.125418
H      -4.189318   -0.528041   -0.658036
H      -3.537182   -1.822732    0.373524
H      -5.452890   -0.647234    1.458084
H      -3.960327   -0.408263    2.386700
H      -3.818477    1.602017    1.105229
