21

C      -0.156753    1.567808    0.070229
C      -0.005927    0.054373    0.027565
C      -1.350267   -0.632573   -0.187971
N       0.950028   -0.492233   -1.036373
C       2.309408   -0.018759   -0.730746
C       1.769867   -1.138290    0.070215
C       0.841085   -0.615461    1.132636
N       1.200431   -0.022246    2.417887
C       0.425540   -1.281654    2.381090
H       0.785045    2.080355    0.276678
H      -0.553380    1.934982   -0.882325
H      -0.854146    1.850304    0.864747
H      -1.796456   -0.298936   -1.129921
H      -1.228143   -1.718092   -0.237527
H      -2.043572   -0.396808    0.625869
H       3.017948   -0.262891   -1.516858
H       2.464636    0.952809   -0.271074
H       2.136731   -2.157189   -0.011588
H       2.176908   -0.213610    2.633198
H      -0.597708   -1.198906    2.737378
H       0.922470   -2.210230    2.653690
