16

C      -0.743408    1.342517    0.043684
C      -0.003105    0.023708    0.013367
O       1.130556    0.024574   -0.904697
C       1.988000   -0.602627    0.075434
C       0.896320   -0.435096    1.181919
C       1.745143    0.666448    1.875000
C       2.830383    0.482856    0.788003
O       3.902051    0.971085    0.591889
H      -0.084751    2.172930    0.310259
H      -1.165532    1.553390   -0.943828
H      -1.568064    1.299688    0.763372
H      -0.693747   -0.781096   -0.276868
H       2.447372   -1.531365   -0.273139
H       0.538864   -1.248958    1.808693
H       1.317213    1.665871    1.979580
H       2.125588    0.356343    2.854095
