20

O      -0.112503    1.430959   -0.072412
C       0.003966    0.010550    0.002144
C       0.782799   -0.464409    1.225279
C       0.909906   -1.996844    1.183517
N      -0.321429   -2.737605    0.907230
C      -1.497932   -2.513236    1.732410
C      -1.470011   -2.026109    0.323173
C      -1.438569   -0.518838    0.061005
O      -2.154362    0.165607    1.079130
H       0.736416    1.819289    0.159569
H       0.483873   -0.376544   -0.910984
H       1.788570   -0.024648    1.237387
H       0.265017   -0.122443    2.127326
H       1.620059   -2.264987    0.390229
H       1.329479   -2.374560    2.122048
H      -2.060045   -3.407117    1.991021
H      -1.478622   -1.747094    2.502464
H      -1.987442   -2.604802   -0.437615
H      -1.912300   -0.330351   -0.913723
H      -1.902022    1.093940    0.982241
