25

C       0.316497    1.568368   -0.242794
C       0.301102    0.036299   -0.284715
C       0.748103   -0.593139    1.034288
C      -0.132884   -0.489437    2.326807
C       0.029127   -2.005825    2.548908
C       0.329474   -2.617793    3.888445
C      -0.558731   -2.776749    1.398747
C      -1.861183   -2.483512    0.679528
C       0.790104   -2.117899    1.211253
H       1.319482    1.948096   -0.016583
H       0.006110    1.998564   -1.200190
H      -0.361354    1.951449    0.528109
H      -0.700274   -0.312070   -0.556790
H       0.969778   -0.314789   -1.082315
H       1.742261   -0.196154    1.274175
H       0.335338    0.108257    3.112861
H      -1.158938   -0.127958    2.196241
H      -0.545493   -2.581319    4.550095
H       0.620874   -3.668826    3.788412
H       1.145997   -2.091229    4.397133
H      -0.418115   -3.847709    1.549321
H      -1.826949   -2.829579   -0.359674
H      -2.689716   -3.004710    1.172976
H      -2.112494   -1.421229    0.665650
H       1.662036   -2.724753    0.986001
