18

C       0.159396    1.511698   -0.351353
C       0.066518    0.073857   -0.145260
C      -0.004585   -1.115150    0.035162
C      -0.102771   -2.550774    0.225708
N      -0.124237   -3.043289    1.640605
C      -1.193173   -4.031446    1.332408
C      -1.464064   -3.257622    0.044228
C      -2.701880   -2.748121   -0.530385
O      -1.935195   -3.794882   -1.163137
H       1.088147    1.912411    0.069703
H       0.146874    1.760353   -1.418328
H      -0.675130    2.039339    0.123311
H       0.645526   -3.063298   -0.398446
H       0.753979   -3.449675    1.943277
H      -0.841845   -5.050812    1.120393
H      -1.992140   -4.075432    2.079330
H      -3.659896   -3.060424   -0.117923
H      -2.694328   -1.790955   -1.047822
