25

C      -0.341147    1.740677    0.516635
C      -0.508754    0.263202    0.878911
C       0.822893   -0.470095    0.962384
O       0.580396   -1.820261    1.296253
C       1.753687   -2.594984    1.390771
C       1.361936   -4.033286    1.726537
C       0.483740   -4.656746    0.641602
O       2.593694   -4.717846    1.902233
C       2.491553   -5.953676    2.568052
H       0.150172    1.860552   -0.455318
H      -1.310468    2.244359    0.461905
H       0.265260    2.268623    1.260957
H      -1.022164    0.163078    1.842116
H      -1.137215   -0.241782    0.136248
H       1.358107   -0.405108   -0.001269
H       1.473401    0.000062    1.720666
H       2.316197   -2.579810    0.441908
H       2.422128   -2.210862    2.177127
H       0.807491   -4.019370    2.680007
H       1.045183   -4.736864   -0.295379
H       0.136532   -5.654895    0.922697
H      -0.390955   -4.024262    0.472735
H       3.509577   -6.320133    2.723806
H       2.000330   -5.847920    3.548486
H       1.937976   -6.704903    1.986420
