18

N       0.464162   -1.161801   -0.288485
C       0.254536   -0.031936   -0.150994
C      -0.041576    1.368930   -0.003196
C       0.173938    2.002817    1.361235
C       1.117830    2.322488    0.241381
C      -1.198129    1.840562   -0.875356
C      -2.635868    1.458813   -0.453875
C      -2.867130    2.981111   -0.401964
O      -1.471388    3.243769   -0.692916
H      -0.539304    2.768575    1.641389
H       0.515142    1.360341    2.163661
H       2.116029    1.902787    0.262548
H       1.024871    3.295987   -0.225096
H      -0.967278    1.617354   -1.925378
H      -3.216954    0.905587   -1.191446
H      -2.696493    0.953075    0.510839
H      -3.518761    3.383026   -1.186206
H      -3.166676    3.402459    0.563646
