18

N      -2.325313    0.576914   -1.843289
C      -2.126604   -0.599487   -1.434702
O      -1.472610   -0.804603   -0.268797
C      -1.205441   -2.146822    0.078653
C      -0.006540   -2.745491   -0.648084
C       1.247785   -2.060662   -0.353981
C       2.278800   -1.497524   -0.104607
C      -1.446076   -2.466033    1.517457
C      -2.377088   -3.018613    0.455652
H      -2.841364    0.555522   -2.720359
H      -2.448269   -1.527689   -1.924410
H       0.074196   -3.803241   -0.369995
H      -0.191405   -2.729891   -1.730538
H       3.186844   -0.991980    0.112711
H      -0.756098   -3.140617    2.011294
H      -1.818734   -1.657899    2.135036
H      -3.365738   -2.579631    0.386462
H      -2.333594   -4.076264    0.218895
