19

C      -0.213492    1.548123    0.007564
C       0.014434    0.040291    0.000720
C      -1.229255   -0.848399    0.365911
C      -0.389174   -1.569273    1.452194
C       0.817110   -0.610321    1.166704
C       2.023459   -1.293912    0.526538
O       2.921346   -1.863664    1.103945
C       1.848449   -1.156855   -0.943401
C       0.750813   -0.442295   -1.222447
H       0.733589    2.093096   -0.067359
H      -0.844440    1.853447   -0.835511
H      -0.714024    1.861895    0.929312
H      -2.055042   -0.259047    0.773271
H      -1.618213   -1.473979   -0.441024
H      -0.786480   -1.492240    2.465401
H      -0.173869   -2.620813    1.250782
H       1.105258    0.026248    2.004166
H       2.535128   -1.602136   -1.652570
H       0.386849   -0.218544   -2.221964
