21

C      -0.043018    1.492534   -0.037762
N      -0.011226    0.042058    0.018955
C      -1.339284   -0.542706   -0.123073
C      -1.279497   -2.038960    0.198786
N      -0.437693   -2.361826    1.362208
C      -0.154212   -1.202693    2.325181
C       1.137761   -1.953865    2.703601
C       1.027842   -2.000174    1.164715
C       0.667730   -0.489872    1.174324
H       0.973224    1.892863    0.029441
H      -0.467427    1.809657   -0.996394
H      -0.649824    1.952967    0.765216
H      -2.053792   -0.056753    0.569943
H      -1.716322   -0.371011   -1.138165
H      -2.292659   -2.412023    0.385230
H      -0.879423   -2.602615   -0.652860
H      -0.920745   -0.809189    2.995265
H       1.951848   -1.365211    3.130523
H       0.984523   -2.909749    3.203695
H       1.647841   -2.541919    0.446733
H       1.461526    0.194878    1.489969
