19

C       0.034254    1.561427   -0.210283
C      -0.045082    0.039127   -0.047861
C      -1.472795   -0.507216    0.034461
N      -2.140573   -0.034632    1.224116
C      -2.213861   -0.506708   -1.342300
O      -2.015058   -1.929696   -1.495461
C      -1.567921   -2.063741   -0.137550
C      -0.354734   -2.868617   -0.003267
N       0.610293   -3.492671    0.119330
H       1.072981    1.872795   -0.350827
H      -0.533579    1.907625   -1.080801
H      -0.340037    2.094754    0.670108
H       0.456524   -0.441575   -0.894272
H       0.495235   -0.269374    0.853477
H      -2.038566    0.968166    1.331453
H      -3.135550   -0.234287    1.197321
H      -3.279989   -0.251292   -1.271217
H      -1.758714    0.054843   -2.164834
H      -2.344938   -2.494545    0.509427
