15

C      -0.009424    1.404616    0.133836
N       0.125326   -0.036404    0.052756
C       0.621104   -0.553824   -0.997272
N       0.719836   -1.977520   -0.998931
C       1.220001   -2.667895   -2.031764
F       1.236507   -3.975439   -1.864020
C       1.668730   -2.046741   -3.153269
C       1.556514   -0.623899   -3.120742
N       1.078785    0.086832   -2.142290
H       0.544604    1.771878    1.006760
H       0.344322    1.934552   -0.756902
H      -1.062767    1.661175    0.302564
H       0.389895   -2.454084   -0.171183
H       2.072982   -2.594083   -3.989716
H       1.900632   -0.067934   -3.993312
