17

O      -0.014951    1.423889    0.097698
C       1.417881    1.463703   -0.060312
C       2.163405    0.979444    1.265614
C       1.321631    1.078718    2.511445
C       0.395098    0.113474    2.515639
C       0.523324   -0.729162    1.273038
C       0.003213   -0.010072   -0.053909
C       1.450683    0.013944   -0.613676
C       1.976490   -0.484765    0.769640
H       1.758930    2.373991   -0.556235
H       3.187443    1.353496    1.327688
H       1.410606    1.873085    3.243244
H      -0.391781   -0.004599    3.251401
H       0.191760   -1.767350    1.341249
H      -0.894504   -0.390303   -0.544222
H       1.769880   -0.296756   -1.605022
H       2.753666   -1.230039    0.936999
