15

C       0.228321    1.499491   -0.021659
C       0.108848    0.006686   -0.032977
C      -0.009304   -0.838498   -1.098868
C      -0.038156   -0.627041   -2.583117
O       0.926954    0.315321   -3.025381
O      -0.102103   -2.115253   -0.673503
N      -0.054783   -2.141924    0.714704
C       0.071850   -0.888997    1.074450
H       1.036832    1.827971    0.639920
H       0.437521    1.872340   -1.025811
H      -0.692838    1.973934    0.335783
H       0.074193   -1.603272   -3.075257
H      -1.005938   -0.217048   -2.891853
H       1.794963   -0.007815   -2.760505
H       0.136034   -0.651946    2.128173
