17

C       0.215074    1.512745   -0.001970
C      -0.067203    0.007852   -0.043225
C       0.662041   -0.723681   -1.195090
N       1.873622   -1.227781   -0.550664
C       2.973179   -1.663975   -1.268764
O       3.986200   -2.129146   -0.820791
C       1.720225   -1.257620    0.864049
O       2.498513   -1.679410    1.675400
N       0.472786   -0.710240    1.105425
H       1.292409    1.707220    0.007914
H      -0.221388    2.011281   -0.873610
H      -0.220694    1.964211    0.895015
H      -1.145940   -0.160732   -0.120039
H       0.052580   -1.549639   -1.580039
H       0.900858   -0.051206   -2.022872
H       2.802446   -1.516044   -2.356130
H       0.292778   -0.402452    2.048603
