14

C      -0.041831    1.459062    0.008902
N      -0.005594   -0.006149    0.000563
C      -1.225831   -0.648575    0.004664
O      -2.300524   -0.094364    0.014409
N      -1.106477   -2.042109   -0.003394
C       0.103222   -2.663727   -0.013761
N       1.239330   -2.068757   -0.017434
C       1.256085   -0.668199   -0.010740
O       2.280920   -0.032972   -0.011971
H       0.988423    1.805466    0.001190
H      -0.578481    1.823410   -0.869930
H      -0.561655    1.814081    0.901616
H      -1.973854   -2.557824   -0.000709
H       0.066315   -3.751847   -0.019044
