18

N      -0.087215    1.282260    0.009038
C      -0.057266    0.020886   -0.004536
O      -1.212394   -0.678213    0.031331
C      -1.099554   -2.071596    0.011454
C      -0.606861   -2.834965   -1.250031
C      -1.520269   -3.959648   -0.762394
C      -1.457274   -3.976781    0.774944
C      -0.506101   -2.862351    1.211229
C      -2.364520   -3.010463    0.052838
H       0.861271    1.650697   -0.022098
H       0.839590   -0.610306   -0.043767
H      -0.999109   -2.373029   -2.159716
H       0.468580   -3.022079   -1.351454
H      -1.854355   -4.826246   -1.316772
H      -1.745629   -4.855811    1.335389
H       0.573837   -3.050786    1.220302
H      -0.822306   -2.421170    2.159997
H      -3.424696   -2.814316    0.098489
