14

C      -0.086639    1.624377    0.010641
C       1.421236    1.305159   -0.004740
C       1.245987    0.059505    0.933284
C       2.026404   -0.864971   -0.021763
C       1.228868    0.069524   -0.952609
C      -0.016555    0.084626    0.001827
H      -0.482189    2.095776    0.916497
H      -0.499077    2.104857   -0.882826
H       2.273392    1.987334   -0.008570
H       1.235346    0.077478    2.024664
H       3.116291   -0.758657   -0.031458
H       1.744504   -1.923166   -0.024460
H       1.198846    0.099457   -2.043366
H      -0.828048   -0.645454    0.005033
