16

N      -0.030511    1.226710   -0.028926
C      -0.037501   -0.028888   -0.011531
O       1.051892   -0.874820   -0.018972
C       0.416591   -2.186727    0.010202
C      -0.697086   -2.035156   -1.044955
C      -1.219525   -0.988880    0.022376
C      -0.659536   -2.005659    1.099132
C      -2.556981   -0.470978    0.038674
C      -3.690423   -0.072815    0.053024
H       0.927262    1.581859   -0.050585
H       1.179060   -2.960823    0.007499
H      -0.415349   -1.655916   -2.028467
H      -1.356034   -2.900478   -1.120411
H      -1.315021   -2.868262    1.221380
H      -0.343724   -1.599650    2.061377
H      -4.685389    0.297349    0.065271
