25

C      -0.036024    1.792749   -0.274314
C      -0.302141    0.284462   -0.341264
C       0.787547   -0.488140   -1.090023
C       2.196916   -0.436208   -0.440950
C       2.832355   -1.719247   -0.918663
C       1.933350   -2.558086   -1.430971
C       0.522098   -2.010649   -1.345706
C      -0.309588   -2.729504   -0.259698
C      -0.542597   -4.215126   -0.554151
H       0.892103    2.013536    0.262977
H       0.053296    2.223369   -1.278238
H      -0.848262    2.315354    0.240628
H      -0.405282   -0.109463    0.677538
H      -1.268796    0.114651   -0.833492
H       0.890047   -0.033256   -2.084777
H       2.760899    0.455459   -0.736752
H       2.139821   -0.410594    0.658335
H       3.894532   -1.919286   -0.825607
H       2.155897   -3.545627   -1.819844
H      -0.013296   -2.138286   -2.297156
H       0.191243   -2.624391    0.711048
H      -1.281229   -2.230960   -0.164390
H      -1.039068   -4.352762   -1.521740
H       0.397821   -4.774280   -0.581685
H      -1.176535   -4.673535    0.211382
