13

N       0.094615    1.434878    0.150198
C       0.001376    0.056170    0.013417
C      -1.043736   -0.802364   -0.034694
O      -0.612148   -2.128848   -0.042791
C       0.729995   -2.059467   -0.030888
N       1.712026   -2.913784   -0.041761
N       2.854660   -2.122969    0.002479
C       2.513539   -0.855621    0.037434
N       1.141279   -0.756563    0.014262
H       0.665950    1.870603   -0.566338
H      -0.812804    1.881272    0.178670
H      -2.107756   -0.648139   -0.046958
H       3.185949   -0.016067    0.086151
