22

C       0.013807    1.592711   -0.200002
C       0.176760    0.075590   -0.088513
C       0.504571   -0.387646    1.339047
C       0.651144   -1.907382    1.409770
C       1.510680   -2.799340    2.227919
C       1.678277   -2.505180    3.729062
C       0.968584   -1.263432    4.190517
C       0.171292   -2.483776    3.806043
N       0.000325   -2.860962    2.346282
H       0.929574    2.113752    0.101306
H      -0.217733    1.893969   -1.226218
H      -0.796796    1.952632    0.443525
H      -0.742311   -0.421895   -0.423627
H       0.970925   -0.261149   -0.767726
H       1.423899    0.109970    1.668962
H      -0.295717   -0.055890    2.009081
H       0.526207   -2.344555    0.417049
H       2.049119   -3.626407    1.771815
H       2.388766   -3.043268    4.341987
H       1.007554   -1.133944    5.269397
H       0.978226   -0.331165    3.648397
H      -0.504902   -2.971359    4.496333
