19

C      -0.032675    1.469026   -0.034722
N       0.037459    0.018639    0.022601
C       0.862165   -0.430948    1.131879
C      -1.298250   -0.575726    0.035286
C      -1.293378   -2.058128   -0.189677
N      -1.086178   -2.594169   -1.398202
N      -1.171734   -3.896150   -1.174043
N      -1.422618   -4.275886    0.071160
C      -1.505448   -3.112458    0.718341
H       0.977812    1.882285   -0.111392
H      -0.595544    1.780485   -0.920338
H      -0.515807    1.921472    0.853979
H       0.460093   -0.132044    2.120728
H       0.951102   -1.520295    1.118082
H       1.866605   -0.007680    1.035787
H      -1.833290   -0.367276    0.983608
H      -1.875968   -0.104144   -0.766105
H      -1.060792   -4.567192   -1.917179
H      -1.709427   -3.079749    1.777031
