21

C       0.076977    1.515224    0.024379
C       0.053388    0.059722   -0.013681
C       0.040666   -1.143875   -0.045791
C      -0.009752   -2.601622   -0.081401
C      -1.442142   -3.158697    0.037223
C      -1.473809   -4.685191   -0.002009
C      -2.875305   -5.274926    0.112803
C      -2.969326   -6.791265    0.079729
O      -3.856809   -4.577051    0.223876
H       0.673957    1.883685    0.866178
H       0.507350    1.932382   -0.892972
H      -0.932858    1.926862    0.131413
H       0.445869   -2.962850   -1.014049
H       0.609008   -3.011078    0.729396
H      -1.897642   -2.804897    0.966721
H      -2.060226   -2.756865   -0.770939
H      -1.022564   -5.066020   -0.930096
H      -0.860323   -5.113953    0.804091
H      -2.384709   -7.228823    0.896844
H      -4.011566   -7.099701    0.168643
H      -2.548397   -7.180482   -0.854210
