21

C      -0.036255    1.534472    0.058764
C       0.135707    0.048796    0.004783
C       0.652752   -0.774564   -1.191196
C       1.241066   -1.772494   -0.167681
C       1.449264   -3.227923   -0.266944
N       2.602104   -2.296592   -0.175969
C       0.714584   -0.928397    0.981823
C       1.331879   -0.775217    2.334675
N      -0.760895   -0.876599    0.750859
H       0.840929    2.049267   -0.348001
H      -0.909607    1.854255   -0.522577
H      -0.179795    1.878928    1.089010
H      -0.112649   -1.150799   -1.875244
H       1.435441   -0.254860   -1.753886
H       1.308742   -3.866282    0.601001
H       1.245050   -3.708963   -1.220288
H       3.021050   -2.173583   -1.095225
H       2.419563   -0.699165    2.247568
H       0.957501    0.119566    2.844007
H       1.109229   -1.639327    2.971928
H      -1.151632   -0.338432    1.526660
