19

C       0.285939    1.444300    0.188885
C      -0.157266    0.005427    0.069297
O      -0.629571   -0.617546    0.993794
C      -0.014576   -0.672019   -1.309743
C      -1.427316   -0.750731   -1.926193
O       0.846823    0.127788   -2.102727
C       0.586207   -2.078082   -1.100581
C       0.928877   -2.814638   -2.369682
O       0.949182   -2.326472   -3.477525
H       1.361022    1.514244   -0.003374
H      -0.194283    2.059276   -0.578249
H       0.049838    1.815793    1.186387
H      -1.821257    0.257778   -2.080691
H      -1.390536   -1.253327   -2.896012
H      -2.106694   -1.294834   -1.264787
H       0.947834   -0.343198   -2.942118
H       1.526355   -2.006194   -0.532311
H      -0.073190   -2.697365   -0.483113
H       1.203016   -3.882809   -2.228333
