14

N      -0.000280    1.401503    0.138003
C      -0.037823    0.021363    0.051852
C      -1.173943   -0.742197    0.040816
N      -1.090368   -2.097926    0.004990
N       0.053590   -2.790764   -0.011641
C       1.161111   -2.098470   -0.001698
O       2.325808   -2.772194   -0.028551
C       1.259724   -0.638027    0.020897
O       2.318472   -0.009128    0.005159
H       0.933380    1.738226   -0.071730
H      -0.732948    1.910059   -0.332760
H      -2.177264   -0.333405    0.061167
H      -1.919329   -2.667444   -0.004259
H       2.107775   -3.713805   -0.054309
