17

C      -0.017178    1.507488   -0.035678
C      -0.027135    0.008263    0.079563
C      -1.243515   -0.790271   -0.372342
O      -1.070628   -2.104478    0.126723
C      -0.255552   -2.065119    1.292612
C       0.595813   -0.822158    1.146009
O       1.190853   -0.691024   -0.158160
C       1.363312   -0.256589    2.284646
O       1.192673   -0.585918    3.432628
H       0.918756    1.925655    0.339042
H      -0.122198    1.803075   -1.085110
H      -0.849614    1.946877    0.522280
H      -2.154539   -0.313276    0.025584
H      -1.328912   -0.849228   -1.462792
H      -0.846386   -1.989409    2.216770
H       0.329894   -2.988422    1.323914
H       2.124438    0.496113    1.987854
