23

C       0.061510    1.502212    0.129548
C       0.269824    0.004565   -0.025317
O       0.557806   -0.538088    1.247614
C       0.677481   -1.945342    1.271640
C       1.955047   -2.507163    0.608515
C       2.172364   -3.829009    1.355046
C       1.894653   -3.453044    2.823727
O       3.012241   -2.785409    3.409243
C       0.748693   -2.424503    2.742817
H       0.961934    1.973535    0.533728
H      -0.165849    1.959608   -0.838152
H      -0.766445    1.704702    0.814870
H      -0.634973   -0.470577   -0.442893
H       1.091617   -0.195225   -0.731371
H      -0.204533   -2.386283    0.775804
H       1.870522   -2.627434   -0.474485
H       2.781573   -1.820441    0.819418
H       1.443706   -4.580737    1.024404
H       3.169429   -4.260178    1.214914
H       1.621842   -4.328792    3.428998
H       3.755935   -3.396932    3.403973
H       0.976979   -1.576240    3.391170
H      -0.201352   -2.853373    3.070135
