20

C      -0.446291    1.473798   -0.197990
N      -0.145469    0.075356    0.014864
C      -1.219904   -0.816954    0.496951
C      -0.170881   -1.460491    1.417071
O      -0.124110   -2.429613    2.115383
C       0.804328   -0.333080    1.067390
C       2.292061   -0.656719    0.802536
C       2.598971   -0.217913    2.259488
C       1.251422    0.550611    2.280713
H       0.466420    2.015185   -0.466731
H      -1.146572    1.574823   -1.033486
H      -0.894470    1.971040    0.681702
H      -2.014433   -0.316447    1.076352
H      -1.684926   -1.452744   -0.264342
H       2.530893   -1.680260    0.504950
H       2.708197    0.037684    0.066106
H       2.582914   -1.068826    2.943909
H       3.507698    0.361643    2.431230
H       1.374970    1.593677    1.974318
H       0.646285    0.516121    3.189792
