19

C      -0.017011    1.592836   -0.152398
C       0.022425    0.106468   -0.022111
C       0.037183   -1.009691   -1.038752
C       1.269920   -1.653152   -0.415501
C       0.876800   -0.891336    0.877712
C      -0.459954   -1.583217    1.318772
C      -1.020194   -0.958523    2.563635
O      -1.415343   -1.568238    3.525606
C      -1.051499   -0.958729    0.050948
H       0.950982    1.995232   -0.473129
H      -0.762124    1.892036   -0.897647
H      -0.281686    2.079259    0.793633
H      -0.241461   -0.951497   -2.083615
H       1.334265   -2.745554   -0.358948
H       2.190542   -1.251872   -0.848509
H       1.622576   -0.617994    1.621806
H      -0.450568   -2.672279    1.425096
H      -1.045364    0.156693    2.542055
H      -2.098602   -0.867758   -0.210092
