14

C       0.094644    1.475028    0.030916
C       1.321099    0.667321   -0.042508
C       1.658550    0.040008    1.320998
O       1.316091    0.831257    2.484628
C       0.026471    0.167498    2.598852
C       0.276950   -0.613119    1.300957
N      -0.062119    0.007765   -0.046397
H      -0.131868    2.018247    0.941771
H      -0.235627    1.961009   -0.881803
H       1.964095    0.634083   -0.916571
H       2.613401   -0.479754    1.416878
H      -0.011949   -0.469133    3.491765
H      -0.813732    0.870589    2.622325
H       0.091184   -1.685055    1.282214
