21

C       0.642597   -0.786851   -0.786115
C      -0.259230   -0.209341    0.309250
C      -1.755700   -0.346576   -0.009018
C      -2.325906   -1.791231    0.147815
C      -3.004875   -1.410838    1.497216
C      -2.669147    0.055185    1.188720
O      -3.048173    1.107399    1.619669
O      -2.125462    0.206026   -1.255022
C      -1.929041    1.606913   -1.397085
H       1.697432   -0.637999   -0.537297
H       0.478792   -1.861590   -0.915019
H       0.445159   -0.307707   -1.748432
H      -0.061308   -0.709786    1.265440
H      -0.025813    0.848926    0.473282
H      -3.046517   -2.001694   -0.643306
H      -1.585943   -2.591324    0.189073
H      -4.068210   -1.633805    1.612171
H      -2.479162   -1.776547    2.385108
H      -2.396893    2.165156   -0.579626
H      -0.864017    1.872346   -1.448447
H      -2.400400    1.886034   -2.342422
