19

C      -0.010806    1.492674   -0.709110
N      -0.171124    0.044853   -0.574113
C       0.982022   -0.719512   -1.018745
C       2.130586   -0.780445   -0.002502
O       2.087505   -0.231257    1.066641
C       0.559820   -2.137782   -1.363039
N       0.739521   -3.072672   -0.524081
O      -0.003124   -2.187224   -2.591286
C      -0.545494   -3.430722   -3.015422
H       0.874730    1.899515   -0.198712
H       0.050798    1.752796   -1.771799
H      -0.897553    1.985408   -0.300508
H      -0.327182   -0.180570    0.404145
H       1.373775   -0.261375   -1.937395
H       3.020594   -1.360091   -0.327686
H       0.390551   -3.976857   -0.838543
H       0.230035   -4.203487   -3.082014
H      -1.337989   -3.769317   -2.337826
H      -0.965668   -3.254766   -4.005888
