21

O      -0.023211    1.435012   -0.006252
C       0.038725    0.024987    0.064296
C      -1.355398   -0.595292    0.020838
O      -1.942985   -0.132388   -1.194437
C      -3.284311   -0.577112   -1.338679
C      -3.347413   -2.083031   -1.617214
C      -2.386321   -2.865935   -0.722752
C      -0.921849   -2.929009   -1.085581
C      -1.360694   -2.108610    0.099311
H      -0.618952    1.628988   -0.739978
H       0.642967   -0.397661   -0.753586
H       0.526646   -0.233284    1.010052
H      -1.939303   -0.188082    0.864893
H      -3.848916   -0.334371   -0.423994
H      -3.716369   -0.003016   -2.163338
H      -4.375165   -2.426595   -1.456747
H      -3.114934   -2.270368   -2.671759
H      -2.800964   -3.757805   -0.264521
H      -0.378390   -3.849287   -0.902806
H      -0.616781   -2.393495   -1.978942
H      -1.132688   -2.500160    1.086531
