12

O      -0.081092    1.447403   -0.153097
C       0.029745    0.071911    0.008326
C       0.250917   -0.572103    1.429581
O       1.131823   -0.519665    2.228964
C      -1.059057   -1.350389    1.298871
O      -2.042766   -0.314001    1.131189
C      -1.302500   -0.692079   -0.024084
C      -1.991719   -1.212462   -1.163621
N      -2.515914   -1.621339   -2.109056
H       0.768197    1.850375    0.058983
H       0.754835   -0.393262   -0.680781
H      -1.389280   -2.315617    1.663041
