18

C       0.065501    1.570961   -0.134144
C       1.334804    0.761047   -0.003813
C       2.106867    0.788992    1.276796
O       1.533156    1.493861    2.383054
C       1.600475    0.066231    2.466521
C       0.321716   -0.705143    2.383695
C      -0.988220    0.009468    2.367566
N      -0.500031   -0.637508    1.161114
C      -0.026032    0.075210    0.003544
H      -0.195084    2.191948    0.713773
H      -0.171221    1.997466   -1.102397
H       1.948505    0.629684   -0.888551
H       3.182397    0.926314    1.174044
H       2.315406   -0.306093    3.199088
H       0.383817   -1.700649    2.819425
H      -1.864655   -0.452981    2.814810
H      -0.945504    1.091789    2.447803
H      -0.273779   -0.462558   -0.906826
