20

C      -0.269083    1.600345    0.011125
C       0.039457    0.099627    0.025084
O       0.533647   -0.335619   -1.252723
C       1.903053   -0.477569   -1.461589
C       2.901991    0.602004   -1.130121
C       2.843074   -0.680319   -0.305742
N       2.284533   -0.780334    1.018724
C       1.988037    0.397485    1.817946
C       0.879656   -0.394863    1.205605
H       0.628483    2.220408   -0.046099
H      -0.896473    1.834031   -0.853671
H      -0.812333    1.877897    0.920583
H      -0.921760   -0.419143    0.102905
H       2.055173   -1.060149   -2.363897
H       3.756694    0.731540   -1.785580
H       2.538186    1.523136   -0.694323
H       3.665950   -1.374917   -0.445415
H       2.199690    0.301243    2.879953
H       2.208406    1.379079    1.407081
H       0.342394   -1.083542    1.853898
