18

C      -0.080835    1.473553    0.059093
C      -0.028368   -0.027745   -0.042112
C      -0.421143   -0.787905   -1.296317
C      -0.189723   -2.195575   -0.796538
C       0.919327   -2.244360    0.190423
N      -0.501766   -2.318782    0.665038
C      -0.373968   -0.894062    1.160933
C       1.052667   -0.800154    0.720071
O       2.128831   -0.247201    1.375419
H       0.541333    1.946617   -0.710014
H      -1.103020    1.846395   -0.068111
H       0.285063    1.812237    1.032677
H      -1.465990   -0.615673   -1.578556
H       0.213845   -0.546767   -2.157267
H      -0.453453   -3.064596   -1.389852
H       1.616601   -3.060174    0.345406
H      -0.903690   -0.571001    2.047292
H       2.738258    0.111399    0.719614
