17

N      -0.200069    1.458650   -0.056198
C       0.015044    0.018536   -0.129795
C       1.019390   -0.363012   -1.153089
N       1.794781   -0.622720   -1.970336
C       0.445181   -0.564964    1.222473
O       1.136365    0.304171    2.110923
C      -0.137655   -0.239199    2.533251
C      -1.257129    0.730584    2.823293
O      -1.119369    1.274976    4.127764
H       0.631376    1.895424    0.330661
H      -0.354735    1.839998   -0.983490
H      -0.927113   -0.465267   -0.419821
H       0.895144   -1.553207    1.118193
H      -0.026430   -1.003202    3.305237
H      -1.306975    1.500327    2.047803
H      -2.206224    0.182077    2.825713
H      -0.320408    1.812876    4.130531
