21

C      -0.089731    1.456876   -0.041155
C       0.030684   -0.048098    0.013620
C      -0.771877   -0.813809    1.042028
C       0.742459   -0.766081    1.151182
C       1.450299   -1.916506    0.519064
C       1.242040   -1.959002   -0.798936
C       0.408606   -0.788359   -1.281456
C      -0.785677   -1.187153   -2.149607
O      -0.276152   -1.779836   -3.337342
H       0.827805    1.913985   -0.429466
H      -0.915807    1.770179   -0.691505
H      -0.278076    1.877666    0.951703
H      -1.344429   -0.216471    1.745482
H      -1.224854   -1.765331    0.785025
H       1.190786   -0.225472    1.978570
H       2.025343   -2.637908    1.089291
H       1.593133   -2.725755   -1.478285
H       1.028470   -0.128358   -1.907715
H      -1.430781   -1.889023   -1.600954
H      -1.387350   -0.292948   -2.379932
H      -1.019686   -2.088427   -3.862981
