18

O      -0.013170   -0.028547   -0.183705
C      -0.042538    1.162789   -0.018919
C      -1.282497    2.065892    0.085756
C      -0.653180    3.376429    0.581255
C       0.081510    3.043278    1.921291
N       1.462550    2.735841    1.441325
C       1.721748    4.013921    0.659762
C       0.629714    3.529407   -0.299283
C       1.149492    2.108945    0.055530
H      -1.724511    2.171293   -0.913911
H      -2.042655    1.637044    0.743679
H      -1.321942    4.236972    0.605013
H       0.123980    3.877504    2.624931
H      -0.346201    2.179181    2.437551
H       1.580217    4.937489    1.229277
H       2.724786    3.989947    0.227625
H       0.500866    3.884226   -1.323595
H       2.063994    1.741073   -0.406065
