15

C      -0.016185    1.382872   -0.058461
N      -0.000893   -0.065143   -0.021069
N       0.008091   -0.787435   -1.154768
C       0.013063   -2.045987   -0.712807
N      -0.042939   -3.115804   -1.579497
C       0.012170   -2.028848    0.708620
C       0.008380   -3.151606    1.637938
O       0.019690   -3.077335    2.845115
N       0.006444   -0.736409    1.098176
H       0.864232    1.748251   -0.592507
H      -0.915670    1.730062   -0.572610
H      -0.008491    1.735745    0.971219
H       0.198319   -2.876828   -2.530881
H       0.415561   -3.956861   -1.264385
H      -0.010343   -4.144044    1.128843
