11

N      -0.047869    1.302309    0.009781
C      -0.039618    0.036523    0.003429
O       1.092256   -0.748455   -0.007433
C       0.720252   -2.127730   -0.011974
C      -0.780959   -2.120605   -0.002703
C      -1.205513   -0.857648    0.006186
H       0.906051    1.666862    0.005719
H       1.139263   -2.613182   -0.903937
H       1.150164   -2.621966    0.869922
H      -1.377738   -3.022789   -0.003503
H      -2.217827   -0.482640    0.014289
