15

C       0.411249    1.375154    0.182537
C      -0.170840    0.003492   -0.156138
C       0.528522   -0.685097   -1.336487
C       1.589414   -1.549865   -0.654761
O       2.540050   -2.081528   -1.161799
C       1.206177   -1.599434    0.826727
O      -0.021988   -0.913783    0.947206
H       1.497583    1.328179    0.318362
H       0.204435    2.089062   -0.621540
H      -0.033117    1.754311    1.106491
H      -1.248856    0.094869   -0.315753
H      -0.156266   -1.352936   -1.871914
H       0.979696   -0.009402   -2.065667
H       1.086781   -2.632733    1.169626
H       2.011512   -1.139027    1.421256
