21

C       0.231491    1.586335   -0.147742
C       0.082554    0.087070   -0.093483
C       0.333887   -0.820867   -1.311268
C      -0.406786   -1.888181   -0.470646
C       0.626824   -2.135476    0.655975
C       0.535483   -0.707014    1.226611
C      -0.938676   -0.696135    1.700292
O      -1.272720    0.517829    2.347597
C      -1.243864   -0.712737    0.193382
H       1.285166    1.864668   -0.276461
H      -0.322597    2.005833   -0.995831
H      -0.135170    2.052087    0.769035
H      -0.253102   -0.473746   -2.168171
H       1.358830   -1.039796   -1.632551
H      -0.887247   -2.751792   -0.929599
H       0.332654   -2.897530    1.384130
H       1.611306   -2.399512    0.259759
H       1.328645   -0.339197    1.877272
H      -1.260053   -1.557174    2.305674
H      -2.229699    0.617266    2.315276
H      -2.214229   -0.457060   -0.236182
