17

N       0.098850    1.444650    0.110676
C      -0.044824    0.016009    0.109769
C      -0.482645   -0.780806    1.284823
C      -1.579692   -0.057547    2.066410
C      -2.483015   -0.073966    0.785770
O      -2.896469    1.156840    0.227252
C      -1.367707   -0.756592   -0.011310
C      -1.577744   -1.769592   -0.987518
N      -1.745707   -2.594118   -1.784490
H       0.352917    1.753979   -0.822288
H      -0.789589    1.890405    0.318589
H       0.745076   -0.473836   -0.452835
H       0.085231   -1.626528    1.651694
H      -2.001465   -0.646986    2.881960
H      -1.307259    0.932613    2.441902
H      -3.334551   -0.750713    0.916146
H      -3.663591    1.472847    0.715872
