16

N       0.203258    0.975168    0.598656
C       0.065828   -0.162226    0.093986
O       0.963760   -0.961316   -0.592674
C      -0.021270   -2.043780   -0.736794
C       0.149109   -3.227876    0.182225
C       0.614681   -2.931748    1.601404
C      -0.848357   -3.009001    1.301535
O      -1.572411   -1.817162    1.099492
C      -1.090117   -1.154813   -0.045439
H       1.154325    1.328329    0.474853
H      -0.140257   -2.306527   -1.787395
H       0.327203   -4.204335   -0.249260
H       1.055363   -3.758522    2.147488
H       1.059420   -1.965409    1.806607
H      -1.467873   -3.795282    1.716732
H      -1.932552   -0.776834   -0.629000
