18

O      -0.214139    0.049159    0.082279
C      -0.055120    1.227529   -0.114394
C       1.276621    1.939245   -0.024790
C       1.424362    2.991037   -1.145139
O       0.823650    4.167460   -0.631981
C       1.231330    4.270114    0.724016
C       1.319726    2.829367    1.238747
C       0.778985    2.377400    2.547336
N       2.228112    2.566426    2.352990
H      -0.910003    1.895787   -0.364887
H       2.073254    1.190500   -0.023848
H       2.489642    3.149979   -1.374211
H       0.905951    2.726634   -2.071233
H       2.220102    4.745530    0.811176
H       0.496896    4.883293    1.251926
H       0.309309    3.094763    3.215412
H       0.389986    1.364887    2.618344
H       2.688351    1.666185    2.242517
