15

C      -0.082304    1.443909    0.118824
C       1.297542    0.844665    0.046037
C       2.053482    0.506527    1.336576
C       1.210282   -0.540584    2.052954
O      -0.103015   -0.101771    2.429328
C       0.038174   -0.870464    1.223911
C       0.070182   -0.050170   -0.045885
H      -0.447572    1.799635    1.074087
H      -0.420305    2.005363   -0.745599
H       1.888808    1.056683   -0.837993
H       3.029308    0.069346    1.094761
H       2.236870    1.381062    1.970527
H       1.676151   -1.236453    2.747781
H      -0.449345   -1.841300    1.234907
H      -0.228929   -0.529860   -0.969978
