18

C      -0.091737    1.539883   -0.048669
C       0.030007    0.025983   -0.017388
C       0.688609   -0.688060   -1.203323
N       2.045067   -0.118408   -1.325503
C       1.799996   -1.210085   -0.356786
C       1.209229   -0.568633    0.909555
O       1.999347    0.324282    1.614389
C       0.623125   -1.601754    1.837977
O       0.798894   -1.559788    3.033066
H       0.858138    1.991355   -0.337813
H      -0.863478    1.846292   -0.763358
H      -0.369034    1.925474    0.936824
H      -0.928716   -0.438804    0.237052
H       0.194558   -1.155304   -2.045732
H       2.486744   -0.547291   -2.138282
H       2.359494   -2.136265   -0.418002
H       1.903640    0.080905    2.549752
H       0.004212   -2.392177    1.367347
