19

C       0.270616    1.432469    0.563965
C       1.462028    1.598156   -0.420354
C       1.271871    0.123677   -0.843686
C      -0.155943    0.159707   -0.218453
O       1.390990   -0.107236   -2.240716
C       1.882929   -1.418015   -2.504928
C       2.570438   -1.855287   -1.231648
O       3.508765   -0.887834   -0.748380
C       2.186378   -0.894442   -0.197493
H       0.601639    1.201799    1.580191
H      -0.451154    2.249316    0.614420
H       1.212200    2.255349   -1.256830
H       2.439872    1.879763   -0.024147
H      -0.492260   -0.712558    0.349774
H      -0.889777    0.383353   -0.996592
H       1.067058   -2.117804   -2.746205
H       2.557811   -1.359906   -3.365588
H       2.804590   -2.899105   -1.041953
H       2.103113   -1.134423    0.859014
