20

C      -0.069158    1.509517   -0.006428
N       1.190629    0.752708    0.011847
C       1.903255    0.687654    1.301308
C       1.791583   -0.708399    1.903401
O       0.442276   -1.019271    2.221770
C      -0.429229   -0.960424    1.115362
C      -0.395894   -2.097000    0.044292
C      -0.412015   -1.011917   -1.075208
C      -0.086401    0.033692   -0.005308
H      -0.366879    2.026077    0.905813
H      -0.268352    2.057523   -0.924210
H       2.955461    0.940005    1.127570
H       1.502275    1.409684    2.026828
H       2.219411   -1.450949    1.211964
H       2.344136   -0.767726    2.844941
H      -1.432192   -0.820160    1.529892
H       0.543697   -2.653383    0.071756
H      -1.224564   -2.806914    0.069745
H       0.325898   -1.112424   -1.873732
H      -1.401829   -0.868999   -1.518288
