17

C       0.001703    1.472197    0.038500
C       0.017849   -0.021210   -0.019681
C      -0.073986   -0.826054   -1.138957
N      -0.011447   -2.113079   -0.662254
C      -0.033896   -3.489351   -1.119329
C       0.098268   -4.242449    0.193933
C       0.181005   -3.381925    1.223381
C       0.112990   -2.028119    0.697831
N       0.134791   -0.784858    1.127223
H       0.922072    1.859323    0.489241
H      -0.096536    1.904436   -0.961241
H      -0.831633    1.834076    0.650635
H      -0.174067   -0.591401   -2.185694
H      -0.968362   -3.728728   -1.641892
H       0.795455   -3.703376   -1.804871
H       0.117954   -5.321824    0.238874
H       0.281307   -3.623004    2.271443
