23

C       0.922238    2.091640    3.141455
C       0.460806    0.715242    2.671477
C      -0.157627    0.509501    1.245559
C       0.785748   -0.682937    1.025246
C       2.230389   -0.277159    1.077928
C       2.836263    0.969980    0.464845
C       4.131629    1.387333    1.151903
O       4.629152    2.538283    0.484137
C       1.468024   -0.411178    2.377293
H       1.614212    2.567821    2.442365
H       0.065662    2.763921    3.267355
H       1.428084    2.019654    4.111252
H      -0.258297    0.330407    3.402994
H      -1.212247    0.228315    1.280599
H      -0.051201    1.340704    0.541055
H       0.479943   -1.633819    0.604596
H       2.876824   -1.145692    0.944389
H       3.053688    0.781757   -0.594156
H       2.144190    1.815386    0.486589
H       3.935826    1.594278    2.215673
H       4.857467    0.558089    1.111683
H       5.442199    2.810206    0.919385
H       1.789038   -1.132636    3.121579
