19

C      -0.241122    1.479020    0.049288
C       0.032901   -0.016420   -0.007165
C      -1.240485   -0.889429   -0.117036
O      -0.942230   -2.125998    0.511287
C      -0.122367   -1.818803    1.634015
C       0.844418   -0.747159    1.133787
C       1.894204   -1.241769    0.091323
C       1.140674   -0.452261   -0.985850
O       1.350579   -0.198669   -2.137162
H       0.680868    2.050681    0.192455
H      -0.695687    1.819652   -0.886810
H      -0.924762    1.723144    0.869522
H      -2.071152   -0.378006    0.398231
H      -1.542925   -1.094939   -1.147316
H      -0.731540   -1.433172    2.468381
H       0.361691   -2.745095    1.955766
H       1.245781   -0.111371    1.923423
H       2.927346   -0.918380    0.246040
H       1.888296   -2.322508   -0.085001
