22

C       0.004173    1.567556   -0.058389
C      -0.011843    0.034951    0.032633
C       0.710902   -0.546111   -1.197128
O       0.669335   -1.953222   -1.350182
C       1.382957   -2.673613   -0.359063
C       0.545043   -2.899960    0.881009
C       1.115588   -2.727901    2.248473
N       0.144384   -1.774972    1.725506
C       0.607385   -0.436067    1.359898
H       1.027155    1.959003   -0.001249
H      -0.430557    1.915698   -1.000833
H      -0.567838    2.014711    0.759940
H      -1.051954   -0.313099    0.012685
H       0.250360   -0.147276   -2.107125
H       1.762174   -0.204456   -1.183069
H       1.638293   -3.641259   -0.805068
H       2.327638   -2.163282   -0.118478
H      -0.252543   -3.628014    0.739884
H       0.780985   -3.353318    3.072001
H       2.156157   -2.409983    2.316648
H       1.707270   -0.361219    1.294770
H       0.302260    0.236912    2.170082
