19

N      -0.084809    1.300316    0.111856
C      -0.047936    0.040899    0.028530
O      -1.186914   -0.673468    0.026341
C      -1.069056   -2.097002    0.035453
C      -1.120469   -2.693826    1.459663
C      -1.705732   -4.113001    1.279645
C      -2.599206   -3.981146    0.054559
N      -3.464937   -2.787410    0.117014
C      -2.226123   -2.751425   -0.688112
H       0.860698    1.675603    0.078406
H       0.857655   -0.577953   -0.059347
H      -0.137187   -2.380743   -0.475428
H      -0.143537   -2.690050    1.948919
H      -1.800804   -2.075437    2.047730
H      -0.916095   -4.845049    1.072748
H      -2.248709   -4.453853    2.166450
H      -2.956657   -4.867295   -0.459889
H      -4.257052   -2.906925   -0.508881
H      -2.294295   -2.674914   -1.767865
