21

C       0.323281    1.566951    0.037209
C      -0.005485    0.093900   -0.028707
C       0.018912   -0.542383   -1.206822
C      -0.288905   -1.995136   -1.515952
C      -1.546510   -2.512675   -0.836158
O      -1.452524   -3.751298   -0.117333
C      -1.626874   -2.538997    0.625145
C      -0.463165   -2.021143    1.440451
C      -0.340900   -0.493609    1.331243
H       1.194790    1.750455    0.679172
H       0.534525    1.982772   -0.951008
H      -0.506786    2.137538    0.474717
H       0.304619    0.052584   -2.072191
H      -0.389892   -2.111732   -2.599856
H       0.544844   -2.645247   -1.226012
H      -2.471694   -2.400082   -1.401571
H      -2.609754   -2.440695    1.089355
H      -0.587362   -2.299702    2.493060
H       0.456900   -2.501344    1.096444
H       0.424546   -0.150112    2.041036
H      -1.273143   -0.026315    1.686795
