19

O      -0.011406    1.203724   -0.688543
C       0.034890   -0.061658   -0.044878
C      -1.366743   -0.655962   -0.092129
C      -1.462564   -2.023055    0.592355
O      -1.037608   -1.966707    1.956420
C      -2.852112   -2.612710    0.471488
C      -3.140343   -3.653945   -0.546873
N      -3.094265   -4.000804    0.882081
H       0.856911    1.609511   -0.612224
H       0.741436   -0.740871   -0.550898
H       0.359271    0.025199    1.001151
H      -2.063141    0.045040    0.387750
H      -1.685317   -0.747673   -1.137134
H      -0.749712   -2.715021    0.122731
H      -1.692743   -1.457622    2.447580
H      -3.656284   -1.931294    0.752692
H      -4.123870   -3.714725   -1.003765
H      -2.323515   -3.970263   -1.191552
H      -2.206369   -4.441915    1.112709
