20

C      -0.016921    1.556841    0.136357
C      -0.002929    0.032068   -0.007029
C       0.721131   -0.467227   -1.276790
C       0.865580   -2.000492   -1.269759
C       1.716198   -2.537768   -2.415519
O       1.776313   -3.948096   -2.276087
C      -0.065786   -0.036694   -2.499509
O       0.317358    0.713349   -3.359766
H       1.001478    1.956019    0.189280
H      -0.513212    2.040540   -0.711191
H      -0.542569    1.857883    1.047390
H       0.487049   -0.418078    0.864106
H      -1.031509   -0.353749   -0.007945
H       1.709357    0.003850   -1.343253
H       1.315640   -2.318354   -0.322840
H      -0.124746   -2.471886   -1.316158
H       1.275915   -2.250458   -3.383929
H       2.720698   -2.086169   -2.372957
H       2.302769   -4.300197   -2.999605
H      -1.089020   -0.486298   -2.545457
