20

C      -0.336741    1.447453    0.019778
C       0.153442    0.015640   -0.053187
O       1.401578   -0.103339   -0.780519
C       2.011087   -0.838455    0.297478
C       0.775268   -0.641816    1.199377
C       0.948045    0.074699    2.564731
C       0.753980   -1.295757    3.269772
C       0.155357   -1.846032    1.946658
H       0.400959    2.091530    0.507537
H      -0.514347    1.833010   -0.989144
H      -1.278717    1.507940    0.576180
H      -0.617200   -0.622808   -0.513611
H       2.217960   -1.881699    0.018678
H       2.944202   -0.370309    0.637477
H       1.887660    0.608055    2.733366
H       0.120261    0.759959    2.771476
H       1.708719   -1.769436    3.514258
H       0.119894   -1.319003    4.158650
H      -0.938898   -1.799427    1.940938
H       0.459794   -2.845020    1.621621
