23

C       0.110674    1.539050   -0.276852
O      -0.085157    0.151193   -0.159628
C       0.634213   -0.639708   -1.102577
C       2.114834   -0.757313   -0.730185
C      -0.052144   -2.006454   -1.143245
C      -1.502115   -1.930844   -1.569390
C      -1.870898   -1.874937   -3.042536
C      -2.173344   -3.103549   -2.219713
O      -1.400533   -4.257863   -2.400155
H       1.138938    1.847535   -0.036431
H      -0.126444    1.900014   -1.290455
H      -0.566037    2.021718    0.433532
H       0.547832   -0.168821   -2.097277
H       2.645180   -1.375601   -1.461476
H       2.605849    0.219769   -0.705510
H       2.221907   -1.219523    0.256316
H       0.498787   -2.667933   -1.817844
H       0.014101   -2.452731   -0.142509
H      -2.124903   -1.341912   -0.904510
H      -2.687683   -1.237685   -3.364211
H      -1.057045   -1.965527   -3.755802
H      -3.214087   -3.295647   -1.957974
H      -1.638813   -4.641945   -3.249995
