12

N      -0.159254    1.345073    0.008458
C       0.015156    0.090280    0.001350
N      -1.123733   -0.744335    0.002949
N      -1.132436   -2.063741   -0.003532
N      -0.013818   -2.681074   -0.012221
C       1.141905   -1.897563   -0.014104
C       2.408298   -2.730104   -0.024817
O       3.510145   -2.256097   -0.028322
N       1.220555   -0.610644   -0.008197
H       0.745366    1.814082    0.006216
H      -2.037872   -0.309273    0.009720
H       2.211464   -3.819873   -0.029399
