14

N      -0.024276    1.347328    0.086997
C      -0.021032    0.076952    0.003293
N       1.070936   -0.809016   -0.126338
C       0.711931   -2.230986   -0.016080
C      -0.774214   -2.095481   -0.002693
C      -1.189988   -0.808063    0.004840
C      -2.602996   -0.928009    0.005823
N      -2.978544   -2.186579   -0.001506
O      -1.780001   -2.955050   -0.009870
H       0.923210    1.727339    0.064634
H       1.975732   -0.509236    0.200128
H       1.081356   -2.815970   -0.867936
H       1.095645   -2.696756    0.902496
H      -3.364742   -0.161946    0.012985
