15

N       0.096200    1.365293   -0.002774
C       0.028670   -0.020120    0.025353
C      -1.125502   -0.716181    0.116249
O      -1.188712   -2.082795    0.213990
C      -0.029895   -2.765149    0.213620
C       1.180531   -2.189615    0.113692
C       1.295977   -0.752236    0.000396
N       2.377112   -0.052740   -0.129625
O       3.517811   -0.878895   -0.164008
H       0.975314    1.694834   -0.378854
H      -0.708193    1.838068   -0.386584
H      -2.111547   -0.273219    0.134117
H      -0.198939   -3.830924    0.301771
H       2.071948   -2.799042    0.114065
H       4.229961   -0.235642   -0.232270
