15

N      -0.082461    1.277459   -0.238077
C      -0.083301    0.053744    0.048703
O       1.077300   -0.612220    0.433144
C       1.023002   -1.966377    0.716661
O       2.019616   -2.546953    1.017981
C      -0.366303   -2.557825    0.571565
C      -0.959226   -2.119610   -0.793374
C      -1.299663   -0.826018   -0.004574
N      -1.290959   -1.607314    1.290575
H       0.855010    1.673152   -0.141029
H      -0.364052   -3.600042    0.886045
H      -0.310748   -2.060635   -1.671951
H      -1.861120   -2.688533   -1.029300
H      -2.185907   -0.238506   -0.234451
H      -2.195358   -2.069702    1.374131
