20

C       0.053350    1.610788   -0.069467
C      -0.032792    0.083849   -0.039816
C      -1.470439   -0.447355   -0.014834
C      -2.285092   -0.041212    1.209091
O      -3.534730   -0.706704    1.120505
C       0.883469   -0.629327   -1.090542
C       1.701155   -1.142370    0.117784
O       2.692206   -1.802822    0.277586
N       0.839946   -0.526282    0.991802
H       1.093849    1.934097   -0.165577
H      -0.513554    2.014496   -0.914778
H      -0.350358    2.056838    0.845292
H      -1.996333   -0.108839   -0.915456
H      -1.444822   -1.541877   -0.049720
H      -1.745059   -0.330499    2.126339
H      -2.420969    1.050716    1.238793
H      -4.068556   -0.450721    1.878275
H       0.401568   -1.415221   -1.674977
H       1.438006    0.036921   -1.753849
H       0.885695   -0.411469    1.994085
