25

C      -0.108708    1.491425   -0.026928
C      -0.181130   -0.027123   -0.203417
C       0.807311   -0.540918   -1.241553
O       0.678416   -1.942025   -1.341059
C       1.561630   -2.523044   -2.279660
C       1.402345   -4.024610   -2.248870
C       1.747459   -4.670506   -0.921293
C       0.287887   -4.617149   -3.076004
C       1.722269   -4.766240   -3.524796
H       0.888021    1.808754    0.299262
H      -0.331625    2.013846   -0.963916
H      -0.827288    1.835245    0.722607
H       0.021965   -0.531268    0.748434
H      -1.190684   -0.327794   -0.506177
H       0.614208   -0.066797   -2.220685
H       1.839137   -0.268790   -0.955654
H       1.351652   -2.136966   -3.291956
H       2.603568   -2.246269   -2.037351
H       1.132127   -4.252088   -0.119652
H       1.582276   -5.751853   -0.952755
H       2.799462   -4.500418   -0.661507
H      -0.220869   -5.493520   -2.689070
H      -0.354091   -3.940365   -3.629582
H       2.050374   -4.195959   -4.387996
H       2.189362   -5.741421   -3.436783
