21

C      -0.224574    1.597737   -0.021488
C      -0.004033    0.092456    0.018578
C       1.176865   -0.593399   -0.735089
C       2.143987   -0.081961    0.377115
C       3.431018   -0.862421    0.610793
O       3.183441   -2.178329    1.070549
C       2.104278   -2.793772    0.391332
C       0.942365   -1.833942    0.179729
C       0.863380   -0.587895    1.123916
H       0.687897    2.178872    0.133653
H      -0.645139    1.895673   -0.988384
H      -0.940717    1.898366    0.751348
H      -0.959921   -0.421994   -0.141840
H       1.362960   -0.602473   -1.812124
H       2.335157    0.992761    0.390530
H       4.033705   -0.875323   -0.315787
H       4.037168   -0.384204    1.387819
H       2.433180   -3.205227   -0.580289
H       1.798779   -3.638765    1.017796
H       0.000308   -2.365833    0.008736
H       0.685014   -0.589555    2.200800
