17

C      -0.130233    1.122865   -0.257505
C       1.377497    1.420236   -0.172518
C       1.435970    0.156096    0.725520
O       0.023665   -0.104088    0.486565
C       2.321453   -0.958944    0.327211
C       3.161512   -1.771764    1.026808
C       3.750663   -2.667437    0.077917
C       3.221698   -2.330333   -1.127153
O       2.355259   -1.294304   -0.996938
H      -0.777432    1.838330    0.265808
H      -0.535581    0.943677   -1.259658
H       1.914974    1.309498   -1.114236
H       1.667045    2.354856    0.309144
H       1.616740    0.369904    1.786805
H       3.334688   -1.738290    2.091301
H       4.465298   -3.452172    0.269574
H       3.348585   -2.710952   -2.127404
