21

C      -0.166348    1.629371   -0.131350
C       0.021787    0.119813   -0.015412
C       1.029642   -0.595720   -1.029971
C       1.933221   -0.859665    0.191850
C       2.598773   -1.780847    1.269071
C       2.098350   -0.471438    2.040489
C       2.674575    0.349890    0.874370
O       4.052430    0.545696    0.705769
C       0.790401   -0.628343    1.171660
H       0.769482    2.179703   -0.251448
H      -0.786948    1.859585   -1.005195
H      -0.679375    2.025625    0.751325
H      -0.971742   -0.333833   -0.076175
H       0.587267   -1.491143   -1.475050
H       1.458821    0.022264   -1.824582
H       2.063147   -2.705203    1.498588
H       3.677743   -1.975771    1.251919
H       2.207999   -0.285085    3.113205
H       2.232480    1.333347    0.738449
H       4.508847   -0.296541    0.794424
H       0.226353   -1.524849    1.442714
