16

N       0.066697    1.373651   -0.055647
C       0.030159   -0.006362    0.000702
N      -1.103689   -0.671309    0.005762
O      -0.735420   -2.025178   -0.019407
C       0.598762   -2.108223   -0.028984
C       1.172768   -0.877641   -0.007445
C       2.598779   -0.486500   -0.035232
C       3.286371   -0.027928    1.208800
N       3.627899   -1.324111    0.601594
H       0.842218    1.786373    0.442791
H      -0.815465    1.809251    0.176951
H       1.009886   -3.106308   -0.059201
H       2.937187   -0.046861   -0.972262
H       4.066962    0.724964    1.149162
H       2.711454   -0.025024    2.131060
H       3.178187   -2.066261    1.132783
