23

C       0.161186    1.507641   -0.247689
C      -0.046856    0.001930   -0.005047
C      -1.541276   -0.333923    0.011691
C       0.730829   -0.823520   -1.062543
C       2.152280   -0.949080   -0.474524
O       2.061121   -0.566598    0.899481
C       0.683324   -0.484802    1.268635
C       0.618775    0.362508    2.530797
O       1.344026   -0.245809    3.584466
H       1.220780    1.776906   -0.209679
H      -0.224614    1.788383   -1.233485
H      -0.366744    2.113841    0.495252
H      -2.009704   -0.078104   -0.944659
H      -1.708147   -1.401341    0.191466
H      -2.067645    0.225249    0.793117
H       0.274138   -1.812288   -1.171522
H       0.725257   -0.348318   -2.047204
H       2.536860   -1.974278   -0.555929
H       2.871786   -0.281995   -0.962611
H       0.311297   -1.492461    1.525964
H       0.998554    1.372503    2.319716
H      -0.418682    0.452334    2.870800
H       2.215487   -0.444406    3.222359
