19

C      -0.264947    1.192709    0.067530
O       0.074142   -0.185470    0.027579
C       0.810884   -0.576181   -1.128490
C       1.333286   -1.993752   -0.843633
O       1.861313   -2.145874    0.449112
C       0.122506   -2.902938   -1.168074
C      -0.509096   -2.258093   -2.411792
C      -0.186884   -0.766376   -2.292193
O      -0.656116    0.125184   -2.953320
H       0.639001    1.818594    0.067344
H      -0.891471    1.479164   -0.784171
H      -0.814668    1.353178    0.997610
H       1.590499    0.160393   -1.359326
H       2.145917   -2.210759   -1.548533
H       1.293293   -1.616675    1.024789
H       0.419293   -3.943418   -1.313514
H      -0.574030   -2.866576   -0.324243
H      -0.039572   -2.616018   -3.338055
H      -1.584059   -2.418503   -2.524053
