14

O      -0.069575    1.435128   -0.117582
C       0.026569    0.043236   -0.033290
C       0.147870   -0.536409    1.413664
N      -1.316937   -0.729000    1.437063
C      -1.409522   -0.596968   -0.029617
C      -2.510368    0.227703   -0.523809
N      -3.398377    0.846885   -0.925585
C       0.965879   -0.502121   -1.018652
N       1.732331   -0.920975   -1.775445
H       0.811490    1.819644   -0.041166
H       0.746276   -1.454537    1.449201
H       0.518624    0.178052    2.154440
H      -1.648855   -1.610144    1.810044
H      -1.406492   -1.545206   -0.582433
