17

O       0.154531    1.345170   -0.043868
C       0.070336   -0.045732   -0.012927
C       0.257663   -0.741062   -1.367819
O      -0.954959   -1.514880   -1.179470
C      -1.293359   -0.790800    0.026603
C      -1.103046   -1.533360    1.371100
C       0.290851   -2.173573    1.241914
C       0.659461   -0.676793    1.269149
O      -0.491373   -0.452768    2.168213
H      -0.147783    1.659635    0.817843
H       0.165698   -0.044988   -2.208474
H       1.140803   -1.375483   -1.502386
H      -2.223888   -0.224887   -0.061133
H      -1.952867   -2.011453    1.856131
H       0.591601   -2.669612    2.164665
H       0.512877   -2.778507    0.363306
H       1.604443   -0.283936    1.644438
