14

O      -0.041462   -0.041725    0.032829
C      -0.014065    1.163689   -0.002854
N       1.151610    1.903224   -0.021208
C       2.447709    1.371473    0.000673
N       3.404087    2.205323    0.014286
C       2.828031    3.551606   -0.004095
C       1.259756    3.369470   -0.020401
C       0.614524    3.981398   -1.184935
N       0.108263    4.479882   -2.096044
H      -0.915102    1.802691   -0.027272
H       2.549226    0.293864    0.005830
H       3.146299    4.109720    0.880308
H       3.174587    4.096874   -0.885646
H       0.803367    3.789646    0.881588
