17

C      -0.080494    1.522070   -0.004334
C      -0.016097    0.019478   -0.001146
C      -0.141627   -0.720068   -1.134177
N      -0.079252   -2.087204   -1.188839
C       0.541487   -2.772929   -0.060387
C      -0.004174   -2.191186    1.241486
C       0.121345   -0.663747    1.285364
O       0.253004   -0.071681    2.343970
H       0.843355    1.956854    0.392244
H      -0.236909    1.912575   -1.014476
H      -0.889857    1.885971    0.637921
H      -0.328288   -0.236327   -2.090015
H       0.095998   -2.482734   -2.099016
H       0.332230   -3.843819   -0.134713
H       1.636189   -2.639308   -0.088883
H      -1.071539   -2.434264    1.334926
H       0.507582   -2.613614    2.108836
