18

C       0.082409    1.527788   -0.076020
C      -0.050650    0.032147   -0.042919
C      -1.232170   -0.656478    0.062164
C      -2.575626    0.029032    0.159615
C      -1.146804   -2.082480    0.076723
C       0.029906   -2.761933   -0.007437
C       1.291369   -2.062696   -0.119088
O       2.410634   -2.544869   -0.201603
N       1.124179   -0.663964   -0.126678
H       0.703056    1.883261    0.755172
H       0.562298    1.856815   -1.005476
H      -0.888133    2.017447   -0.005781
H      -2.795601    0.648295   -0.717466
H      -3.372989   -0.714902    0.234703
H      -2.654540    0.674664    1.041703
H      -2.074735   -2.643230    0.159549
H       0.072992   -3.843717    0.005344
H       1.995842   -0.156363   -0.204199
