22

C      -0.676770    1.247560    0.063333
C       0.753628    0.771685   -0.188242
N       1.211187   -0.069376    0.915823
C       2.526881   -0.762488    0.797786
C       2.088292   -1.839429    1.834609
C       2.564563   -3.005270    0.959553
C       2.026066   -1.991470   -0.076975
C       2.026440   -2.207817   -1.569478
C       0.871762   -1.526204    0.914023
H      -0.742640    1.764500    1.024763
H      -1.007031    1.928886   -0.727042
H      -1.374408    0.403229    0.087833
H       0.808217    0.283681   -1.173965
H       1.426091    1.638311   -0.230281
H       3.480287   -0.231826    0.739553
H       2.104243   -1.710797    2.915756
H       3.642621   -3.196435    0.937762
H       2.014265   -3.947614    1.050991
H       1.432089   -3.092614   -1.826628
H       1.623512   -1.360546   -2.128129
H       3.047783   -2.387037   -1.926004
H      -0.146702   -1.911444    0.997013
