19

C       0.122229    1.510013    0.075761
C      -0.056412   -0.005924    0.034626
C      -1.516552   -0.436088   -0.024961
O      -2.432820    0.346134   -0.037774
C      -1.743267   -1.948356   -0.068026
O      -3.111556   -2.228373   -0.120888
C      -3.406082   -3.600909   -0.163364
C      -4.917531   -3.755144   -0.218437
O      -5.472345   -4.820262   -0.260996
H       1.182772    1.772163    0.117428
H      -0.317079    1.977653   -0.808749
H      -0.376053    1.936913    0.949554
H       0.462200   -0.442394   -0.830424
H       0.402926   -0.482671    0.911837
H      -1.209116   -2.359965   -0.943526
H      -1.268825   -2.401290    0.821351
H      -2.967043   -4.093765   -1.047631
H      -3.027165   -4.135835    0.724218
H      -5.463620   -2.787158   -0.215770
