19

C      -0.090929    1.509384    0.006634
C      -0.044269    0.007442    0.049568
C       0.849825   -0.825077   -0.964255
C       1.922676   -0.996877    0.141162
C       0.726667   -0.874144    1.103187
C      -0.301134   -1.963981    0.683284
C      -0.049375   -2.071159   -0.867569
O      -1.394356   -1.608758   -1.165283
C      -1.302299   -0.935295    0.101351
H       0.914890    1.945039    0.007383
H      -0.601883    1.857122   -0.898795
H      -0.627761    1.917440    0.870534
H       1.087754   -0.460598   -1.963471
H       2.510185   -1.921817    0.145573
H       2.598948   -0.139624    0.206043
H       0.822503   -0.621241    2.158552
H      -0.566430   -2.845445    1.262634
H       0.227661   -2.985055   -1.392189
H      -2.251605   -0.601375    0.520835
