17

O       0.031185    0.043834   -0.522632
C       0.006117    1.182680   -0.131476
C      -1.259288    2.003723    0.154942
C      -0.785829    3.309867    0.820906
C      -0.636335    3.139284    2.340539
O       0.556661    2.359417    2.502737
C       1.411621    2.703249    1.444715
C       0.702186    3.477026    0.396861
C       1.196238    2.072978    0.063866
H      -1.725867    2.208448   -0.816093
H      -1.977155    1.427373    0.744323
H      -1.402199    4.169816    0.556344
H      -0.522652    4.112995    2.839787
H      -1.459565    2.594178    2.810173
H       2.435630    2.896702    1.745349
H       1.074844    4.377038   -0.074354
H       2.080178    1.880956   -0.532552
