19

O       0.445970    1.165093   -0.166027
C       0.081892   -0.163564    0.017005
C      -0.530013   -0.939802   -1.125316
C      -1.359071   -0.581783    0.095402
C      -1.485180   -1.646188    1.178804
C      -0.042242   -2.169233    1.401915
C       0.854739   -0.954407    1.064757
C       2.270960   -1.269331    0.650953
O       2.851800   -0.682709   -0.232199
H       1.328208    1.140347   -0.560158
H      -0.722093   -0.353422   -2.016499
H      -0.255721   -1.972755   -1.315595
H      -2.148861    0.150866   -0.023738
H      -1.863134   -1.184372    2.098584
H      -2.174345   -2.455033    0.914559
H       0.115319   -2.541339    2.417026
H       0.173742   -3.000494    0.722147
H       0.943158   -0.313980    1.957944
H       2.782642   -2.075542    1.224316
