16

C      -0.218906    1.648028   -0.117571
C       0.073712    0.151621   -0.025607
C       0.975098   -0.400457   -1.194349
N       2.146498   -0.960028   -0.537697
C       2.004231   -0.742061    0.707900
N       2.891562   -1.020731    1.705326
O       0.875147   -0.104455    1.151299
C      -1.177203   -0.615633    0.107865
N      -2.165453   -1.209651    0.181788
H       0.725999    2.191381   -0.199107
H      -0.826340    1.858265   -1.002311
H      -0.756248    1.996077    0.767370
H       0.450684   -1.158742   -1.783498
H       1.249843    0.415246   -1.874244
H       3.608560   -1.681330    1.449683
H       2.492097   -1.152176    2.621523
