23

C       0.070953    1.650069   -0.298362
C       0.013345    0.117248   -0.158469
C       0.929409   -0.558077   -1.157789
C       2.029282   -1.039172   -0.581232
C       2.025898   -0.797696    0.909004
C       0.547035   -0.424249    1.195809
C       0.308566    0.348346    2.525771
C      -0.002190   -1.001418    3.225326
C      -0.231713   -1.625223    1.824177
H       1.086550    2.023394   -0.129738
H      -0.231382    1.958225   -1.304867
H      -0.597011    2.144731    0.413995
H      -1.031372   -0.192282   -0.296835
H       0.716884   -0.575786   -2.221877
H       2.854107   -1.517499   -1.098372
H       2.355194   -1.667364    1.490292
H       2.711914    0.021700    1.171442
H       1.136719    0.948255    2.913986
H      -0.581227    0.983298    2.473093
H       0.878669   -1.417773    3.721661
H      -0.836309   -1.024018    3.930420
H      -1.289937   -1.604960    1.544270
H       0.157924   -2.629533    1.635988
