19

C      -0.005457    1.315250   -0.047807
O      -0.033366   -0.100973    0.052996
C       0.671660   -0.625328    1.175838
C      -0.354909   -1.023744    2.284589
O      -1.531025   -0.236726    2.261295
C      -0.587236   -2.493262    2.013197
C       0.301123   -2.997041    1.159765
C       1.322605   -1.968342    0.722092
O       1.651786   -1.993228   -0.647737
H       1.024681    1.685512   -0.140401
H      -0.560996    1.580471   -0.950809
H      -0.480449    1.783858    0.821819
H       1.411818    0.104347    1.519401
H       0.078663   -0.866707    3.279708
H      -1.844193   -0.270699    1.348626
H      -1.393097   -3.031698    2.499613
H       0.358163   -4.024844    0.819394
H       2.264938   -2.119782    1.265341
H       0.965851   -1.467516   -1.081417
