17

O      -0.170099    0.132306   -0.341428
C      -0.088796    1.311879   -0.188862
O       1.087464    1.939223    0.027564
C       1.085194    3.347868    0.196803
C       1.893223    3.864449    1.402345
O       2.712113    4.685773    0.539299
C       2.115714    4.110569   -0.625483
C       2.910149    3.625287   -1.789578
C       1.997568    4.838217   -1.919785
H      -0.948720    2.009753   -0.207248
H       0.063671    3.736265    0.126781
H       1.351188    4.459188    2.143915
H       2.469671    3.074945    1.897262
H       3.978923    3.806157   -1.758622
H       2.614274    2.691768   -2.255924
H       1.078191    4.744171   -2.489456
H       2.468266    5.813843   -1.974831
