19

C      -0.047918    1.452191    0.043566
C       1.335928    0.804084   -0.057969
C       2.194099    0.441054   -1.243696
O       2.303906   -1.001486   -1.311595
C       1.093051   -1.724854   -1.040245
C       0.875425   -2.013611    0.483485
O      -0.015244   -0.979214    0.981396
C       0.069688   -0.021716   -0.043913
C      -0.118773   -0.828985   -1.316034
H      -0.259848    1.913173    1.001697
H      -0.488543    1.965405   -0.806280
H       1.856018    0.789714    0.895291
H       1.795850    0.841287   -2.185747
H       3.223536    0.794524   -1.148225
H       1.159163   -2.647325   -1.621246
H       0.395641   -2.982088    0.654423
H       1.834352   -1.979896    1.012087
H      -0.050550   -0.277941   -2.253453
H      -1.063562   -1.378114   -1.285809
