18

C      -0.014377    1.538677   -0.024926
C       1.506946    1.807621    0.002316
C       2.032491    1.514145    1.434765
C       1.392524    0.283428    2.040847
C       0.455079   -0.425942    1.408773
C      -0.000352   -0.006745    0.015786
C       1.143232   -0.294892   -0.963205
C       1.993672    0.732193   -0.961354
H      -0.554854    1.981187    0.816727
H      -0.449110    1.898700   -0.962311
H       1.780931    2.823196   -0.297626
H       3.125483    1.393045    1.422550
H       1.840266    2.381067    2.083043
H       1.739655   -0.015624    3.027264
H       0.027202   -1.316360    1.860339
H      -0.951586   -0.470247   -0.255636
H       1.267316   -1.239246   -1.480022
H       2.942805    0.781278   -1.482936
