13

O       0.101552    1.311228    0.160907
C       0.026956   -0.018983    0.019510
N      -0.125786   -0.682120   -1.101272
C      -0.140040   -1.999658   -0.705289
O      -0.324912   -3.028883   -1.584847
C       0.121541   -2.880572   -2.866110
O      -0.062097   -3.727119   -3.684997
C      -0.000995   -2.136254    0.642307
N       0.105090   -0.820966    1.102865
H       0.005458    1.691488   -0.721279
H       0.642198   -1.925527   -3.024316
H       0.030284   -2.990044    1.293874
H       0.200457   -0.516857    2.056543
