18

C       0.022793    1.575388    0.007726
C      -0.031805    0.045398    0.003109
N      -1.389921   -0.476263    0.012967
C      -2.149563   -0.752103    1.130380
O      -1.560758   -0.534038    2.340687
C      -3.381304   -1.203320    0.748599
C      -3.392948   -1.200520   -0.693211
C      -2.167637   -0.747490   -1.093095
O      -1.598657   -0.524420   -2.311939
H       1.063081    1.916507    0.000087
H      -0.479183    1.981803   -0.874631
H      -0.464193    1.975835    0.901134
H       0.464224   -0.350942   -0.886239
H       0.479417   -0.356744    0.881197
H      -2.161216   -0.849260    3.022208
H      -4.188203   -1.498110    1.401243
H      -4.210299   -1.492786   -1.333875
H      -2.209370   -0.838565   -2.984789
