16

N       0.662388    0.258880   -0.827589
C      -0.022568    0.049750    0.328914
O       0.183918    0.671920    1.355933
C      -1.115311   -1.014802    0.246462
C      -2.314081   -0.826946   -0.767611
C      -1.982697   -2.201093   -1.356616
N      -0.593998   -2.112232   -1.870875
C      -0.834063   -2.372096   -0.427032
H       1.427064    0.913261   -0.811411
H       0.515369   -0.358379   -1.616072
H      -1.490839   -1.150087    1.260426
H      -3.275282   -0.791812   -0.252733
H      -2.237855    0.010118   -1.464573
H      -2.666404   -2.934731   -1.764884
H      -0.365900   -3.005859   -2.303349
H      -0.429469   -3.261102    0.040734
