18

N      -0.065123    1.353747   -0.081530
C       0.037690    0.097054   -0.015164
O      -1.041721   -0.718526   -0.041665
C      -1.847534   -0.664547   -1.218868
C      -1.060904   -1.239638   -2.418204
C      -0.371693   -2.522414   -2.035841
C       0.761721   -2.589977   -1.333460
C       1.628375   -1.410414   -0.953937
O       1.199281   -0.586920    0.165916
H       0.862960    1.773977   -0.056819
H      -2.723015   -1.276873   -0.990032
H      -2.164655    0.364493   -1.414977
H      -1.748697   -1.386990   -3.256817
H      -0.329666   -0.485812   -2.735052
H      -0.893816   -3.447454   -2.269756
H       1.131510   -3.564390   -1.026447
H       2.615140   -1.758004   -0.645261
H       1.764033   -0.742907   -1.815639
