20

C      -0.035488    1.383195    0.016136
O      -0.024087   -0.024631   -0.006413
C       0.662303   -0.554218   -1.120145
C       0.611790   -2.074505   -1.051592
C      -0.824806   -2.588623   -1.106543
O      -0.868370   -4.023163   -1.096079
C       0.122362   -4.647961   -1.775100
N       1.156320   -4.166305   -2.320577
C       1.400343   -2.732643   -2.192397
H       0.983732    1.798136    0.061919
H      -0.536019    1.802275   -0.871120
H      -0.583098    1.691964    0.909645
H       0.200326   -0.199854   -2.059623
H       1.710963   -0.210427   -1.128548
H       1.046738   -2.387621   -0.094399
H      -1.406291   -2.258671   -0.245515
H      -1.322338   -2.232806   -2.020027
H      -0.072965   -5.718576   -1.805824
H       1.159236   -2.250757   -3.151291
H       2.476788   -2.587638   -2.044764
