17

O      -0.047112    1.347758   -0.028060
C       0.006327   -0.037749   -0.043991
C       0.896236   -0.714396   -1.082102
O       0.354865   -2.015017   -1.270968
C      -1.048772   -1.969355   -1.002875
C      -1.238614   -0.852732    0.005259
C      -0.320188   -0.814786    1.236190
C       0.471592   -1.965337    1.740984
O       0.701555   -2.131769    2.917204
H       0.727631    1.679030    0.439691
H       0.854321   -0.110875   -2.002378
H       1.944515   -0.832232   -0.788213
H      -1.619039   -1.738759   -1.916075
H      -1.345542   -2.962396   -0.652793
H      -2.209311   -0.383621    0.108185
H      -0.692734   -0.178398    2.033257
H       0.852557   -2.666891    0.973959
