19

O      -0.065446    1.399750   -0.026254
C      -0.027822   -0.016936    0.013358
C       0.492390   -0.609678    1.366026
C      -0.797023   -1.333896    1.833719
C      -1.237857   -2.028590    0.499158
C      -1.462059   -0.563418    0.037883
C      -1.893215   -0.265394    1.500144
C      -0.758521   -2.032817    3.092616
C      -0.727238   -2.617931    4.143540
H       0.838476    1.725706    0.021932
H       0.535232   -0.408785   -0.845580
H       1.327852   -1.304344    1.244748
H       0.791130    0.184686    2.055410
H      -0.492163   -2.636930   -0.021756
H      -2.170383   -2.584317    0.611038
H      -2.092351   -0.312790   -0.813865
H      -2.896526   -0.629278    1.727786
H      -1.748301    0.747072    1.880034
H      -0.701539   -3.133017    5.071501
