23

C      -0.679194    1.410537    0.625379
C      -0.221987   -0.036307    0.384100
C       1.109912   -0.369126   -0.365770
C       1.875547   -0.043242    0.972716
O       2.076500    1.262734    1.453326
C       0.639090   -0.885468    1.393625
C       0.982954   -1.845009    0.182753
C      -0.121100   -2.758399   -0.375708
C       2.240466   -2.729635    0.257366
H       0.091686    2.155475    0.419923
H      -1.519845    1.642958   -0.036246
H      -1.045002    1.557558    1.650047
H      -1.086379   -0.583050    0.017275
H       1.386300   -0.070114   -1.379831
H       2.848401   -0.515362    1.071993
H       1.259035    1.604466    1.819246
H       0.360529   -1.187543    2.407723
H      -1.115173   -2.318331   -0.441146
H       0.151939   -3.096003   -1.381908
H      -0.205693   -3.655499    0.248128
H       2.072556   -3.556895    0.956552
H       2.430394   -3.177853   -0.724445
H       3.157785   -2.228812    0.561654
