13

N      -0.087999    1.470692    0.356097
C       0.007050    0.224251    0.196470
O      -1.055145   -0.571534   -0.155572
C      -2.335599   -0.068825   -0.053583
O      -3.263308   -0.705699   -0.438145
C       1.240394   -0.613695    0.319706
C       2.373249   -0.388767   -0.597458
O       2.397717    0.090578    0.746439
H       0.821476    1.838030    0.640501
H      -2.359866    0.923522    0.412282
H       1.095277   -1.604542    0.745672
H       3.051298   -1.211129   -0.815503
H       2.286546    0.378167   -1.364287
