17

C       0.086979    1.564018    0.084850
C       0.074026    0.062807    0.062025
C      -1.245350   -0.733182   -0.037324
O      -0.843832   -1.626261    1.035189
C       0.397214   -0.940255    1.230192
C       1.532553   -1.405150    0.305965
O       1.113429   -0.505552   -0.751815
C       0.682936   -0.563549    2.648164
O       1.739006   -0.104449    3.009407
H       1.051742    1.934384    0.441018
H      -0.070205    1.945472   -0.930401
H      -0.704741    1.958995    0.727994
H      -2.152055   -0.178080    0.232264
H      -1.388465   -1.254153   -0.989058
H       2.527637   -1.143875    0.680650
H       1.485283   -2.458336    0.013207
H      -0.172315   -0.715664    3.341441
