15

O      -0.785008    0.893546    0.478852
C       0.219043    0.909179   -0.189221
C       1.350806    1.838365    0.050671
O       2.229086    2.072778   -1.057836
C       2.772209    1.377522    0.048810
C       3.563167    2.213811    1.051740
C       2.569901    3.228680    1.613696
O       2.018184    4.128907    0.652759
C       1.238282    2.994925    1.026670
H       0.381825    0.218910   -1.044949
H       3.058483    0.345727   -0.147796
H       3.929961    1.565951    1.855546
H       4.427920    2.695154    0.584540
H       2.722023    3.644258    2.607002
H       0.291828    3.178859    1.522440
