17

C      -0.011372    1.505964   -0.132695
C       0.052498    0.009868    0.057986
N       1.366168   -0.637637    0.004547
C       0.609368   -0.668521    1.280467
C       1.261876    0.062742    2.441131
N       2.386603   -0.731179    2.928030
C      -0.021518   -1.924460    1.633412
N      -0.543420   -2.924362    1.890199
H       0.875327    2.002724    0.263962
H      -0.071905    1.736940   -1.201357
H      -0.899695    1.923033    0.352319
H      -0.772156   -0.531049   -0.403317
H       1.316201   -1.539153   -0.462878
H       1.529372    1.074484    2.105368
H       0.531776    0.168379    3.251328
H       3.111817   -0.749373    2.216950
H       2.789836   -0.302044    3.753980
