20

C      -0.022753    1.517830   -0.125715
C      -0.028741   -0.004422    0.004784
O       0.787649   -0.434122    1.094445
C      -1.448815   -0.578979    0.116497
C      -1.463799   -2.096398    0.077816
C      -2.826829   -2.817415   -0.021758
C      -2.252999   -3.416010   -1.320895
O      -1.061733   -2.610503   -1.220658
H       1.004213    1.889176   -0.180096
H      -0.558452    1.841506   -1.023863
H      -0.510987    1.985723    0.739323
H       0.444619   -0.445710   -0.879524
H       0.458053   -0.003440    1.891433
H      -1.906572   -0.238021    1.057802
H      -2.069149   -0.194015   -0.702449
H      -0.805433   -2.489100    0.862707
H      -3.061244   -3.523205    0.776446
H      -3.675472   -2.145253   -0.168489
H      -2.024923   -4.488935   -1.274078
H      -2.809514   -3.215292   -2.244089
