18

O      -0.019125    1.436111   -0.263186
C       0.046704    0.046809    0.007481
C      -1.371427   -0.505453   -0.063447
C      -1.422531   -2.024777    0.179960
C      -2.805794   -2.589823    0.150497
C      -3.610832   -3.154600    1.113992
N      -4.805693   -3.503748    0.559249
N      -4.796062   -3.188400   -0.701948
N      -3.591093   -2.635597   -0.956549
H       0.868556    1.800346   -0.199985
H       0.686426   -0.475162   -0.724011
H       0.470772   -0.149441    1.006159
H      -1.993660    0.011008    0.674974
H      -1.788048   -0.261572   -1.047988
H      -0.795398   -2.536085   -0.562936
H      -0.986610   -2.256593    1.157544
H      -3.397142   -3.327642    2.156646
H      -3.386010   -2.319310   -1.891050
