18

O      -0.013494   -0.013834    0.019293
C       0.002657    1.194578    0.042012
C      -1.264210    2.016127   -0.000462
C      -1.694703    2.901502    1.130467
N      -1.117339    3.480847   -0.072158
C       0.290530    3.921006   -0.032318
C       1.200940    3.189855    1.001247
C       1.273005    2.026288   -0.026835
C       1.052710    3.126309   -1.124339
H      -2.041002    1.580692   -0.624013
H      -2.758854    3.076980    1.260763
H      -1.127109    2.889267    2.054423
H       0.308464    5.012003   -0.050912
H       2.165208    3.699508    1.068833
H       0.847475    2.985378    2.013153
H       2.150775    1.381658   -0.066535
H       0.495270    2.862837   -2.026104
H       1.999932    3.597406   -1.395311
