17

O      -0.190568    1.021296   -0.399023
C       0.126260   -0.330078   -0.132907
C       1.038949   -0.787949   -1.263393
O       0.328795   -0.854893   -2.497994
C       0.292652    0.263401   -3.258629
O      -0.342070    0.324015   -4.267055
C       0.816886   -0.487248    1.241801
C      -0.024273    0.045044    2.305956
C      -0.762378    0.513323    3.131835
H      -0.785464    1.328299    0.295489
H      -0.778956   -0.955296   -0.145773
H       1.892286   -0.102035   -1.344059
H       1.413911   -1.796400   -1.072734
H       0.916725    1.079048   -2.853488
H       1.037122   -1.545883    1.427069
H       1.775116    0.047373    1.224910
H      -1.393676    0.910184    3.888393
