20

C       0.019395    1.541335   -0.104675
C       0.068506    0.009326    0.060790
C       0.852078   -0.376828    1.326872
N      -1.291497   -0.541852    0.081834
C      -2.215382   -0.321164    1.052893
O      -2.026354    0.238709    2.114285
C       0.774956   -0.604508   -1.149484
C       0.627155   -2.005423   -1.551912
O      -0.033383   -0.953586   -2.278258
H       1.030251    1.961373   -0.125971
H      -0.486000    1.811987   -1.036838
H      -0.523554    1.984620    0.732516
H       0.398670    0.082093    2.205124
H       0.854843   -1.461975    1.462844
H       1.889563   -0.037261    1.240085
H      -1.631275   -0.836664   -0.824894
H      -3.202102   -0.740752    0.768618
H       1.703624   -0.096486   -1.410235
H       1.431948   -2.501015   -2.090893
H      -0.033400   -2.659744   -0.987186
