17

C      -0.045307    1.238325    0.181183
O      -0.207145   -0.164230    0.357431
C       0.754459   -0.723169    1.186851
C       0.604060   -2.278680    1.334054
N       2.025189   -2.375457    0.963561
C       2.135688   -1.039724    0.577563
N       2.964018   -0.320090   -0.045030
C       0.287265   -2.789048    2.721080
O      -0.754919   -3.301390    3.033902
H       0.918961    1.470563   -0.283302
H      -0.859258    1.566234   -0.468147
H      -0.117896    1.766567    1.143712
H       0.827194   -0.194581    2.150657
H      -0.108265   -2.669066    0.601782
H       2.470826   -3.169411    0.524615
H       3.765490   -0.853838   -0.386916
H       1.116470   -2.634568    3.449780
