13

C      -0.120275    1.445367   -0.015228
C      -0.014455   -0.002850   -0.005843
C       0.071233   -1.206319    0.001390
C       0.160220   -2.602764    0.007299
C       1.166115   -3.457073    0.236069
O       0.709870   -4.745853    0.114115
C      -0.627000   -4.680585   -0.201538
O      -1.341828   -5.610527   -0.380788
O      -0.978464   -3.364215   -0.270425
H       0.557897    1.888179   -0.752785
H      -1.139679    1.754760   -0.268764
H       0.124479    1.867905    0.965371
H       2.202370   -3.312540    0.482864
