16

O       1.121606   -0.865975    0.123008
N       0.018181   -0.020130    0.282767
C      -1.066572   -0.662494    0.060783
C      -1.223136   -2.118441   -0.355328
N      -2.608918   -2.254504   -0.836798
C      -3.385052   -1.246127   -0.096217
C      -2.421162   -0.095194    0.165228
N      -2.860140    1.082842    0.396713
O      -1.851733    2.015146    0.603931
H       1.861181   -0.272197    0.294468
H      -0.496806   -2.407390   -1.117587
H      -1.056628   -2.773354    0.510984
H      -2.624866   -2.003522   -1.820544
H      -4.274528   -0.934851   -0.646156
H      -3.718215   -1.677089    0.858084
H      -2.351585    2.827809    0.742909
