18

O      -0.781644    0.971689   -0.585613
C       0.274579    0.834585   -0.023385
C       1.359439    1.877174    0.034189
C       1.324710    3.024145   -1.002589
C       2.713195    2.515797   -1.486295
N       2.684640    1.373446   -0.500486
C       3.306490    1.592804    0.823005
C       3.169085    2.983923    1.374585
C       1.983191    2.061181    1.433015
H       0.545288   -0.115162    0.490625
H       0.512986    2.911587   -1.722236
H       1.298211    4.034280   -0.589958
H       2.738475    2.145081   -2.513863
H       3.550725    3.203792   -1.341393
H       4.048674    0.894547    1.193053
H       3.662314    3.126279    2.331281
H       3.176175    3.866804    0.744522
H       1.506660    1.782715    2.364862
