19

C      -0.069815    1.627800   -0.002829
C       1.439319    1.269793    0.004401
C       1.102556    0.186336    1.082754
C       2.064031   -0.977588    1.312192
C       2.531300   -1.598755    0.014595
O       1.533288   -2.252159   -0.778512
C       2.044144   -0.983256   -1.223880
C       1.106521    0.188096   -1.083838
C      -0.015692    0.075192   -0.006734
H      -0.466563    2.099804    0.900151
H      -0.453123    2.105988   -0.908537
H       2.285373    1.960410    0.004250
H       0.758057    0.599940    2.036517
H       2.941010   -0.618318    1.866668
H       1.590091   -1.741776    1.941179
H       3.492498   -2.111405    0.024959
H       2.646771   -1.036052   -2.129622
H       0.783211    0.585699   -2.050614
H      -0.853486   -0.621652   -0.021379
