17

O      -0.829975    1.297011   -0.155096
C       0.279728    0.896732    0.107746
C       1.476394    1.781062    0.121215
N       2.637587    1.261542    0.332825
C       3.724582    2.239156    0.237282
C       3.365273    3.528488    1.045283
C       2.492733    3.906417   -0.187012
C       3.535329    3.123825   -1.039535
N       1.274409    3.111020   -0.100731
H       0.508848   -0.159946    0.342608
H       4.684032    1.752868    0.409496
H       2.861970    3.404417    2.005738
H       4.226423    4.191608    1.142277
H       2.257436    4.947589   -0.404805
H       4.422256    3.728265   -1.235946
H       3.190162    2.634290   -1.952458
H       0.386971    3.413228   -0.469697
