16

C       0.070272    1.427796   -0.082868
N       0.259735   -0.006202    0.015766
C       0.380669   -0.646943    1.215788
O       0.350280   -0.081962    2.289306
C       0.495075   -2.171200    1.093313
O       1.390724   -2.634086    2.063025
C       1.437687   -4.039021    2.135443
H       0.930564    1.916564   -0.554347
H      -0.829616    1.669944   -0.658653
H      -0.038132    1.809218    0.933084
H       0.366488   -0.539104   -0.831001
H      -0.514135   -2.593344    1.248280
H       0.815546   -2.469356    0.078750
H       0.453713   -4.466823    2.385168
H       1.777266   -4.490021    1.188880
H       2.147615   -4.298071    2.924050
