20

C       0.340659    1.265402    0.405325
C       0.351640   -0.224196    0.050129
C       0.465470   -0.482817   -1.450007
C       1.911480   -0.312060   -2.030322
C       2.028985   -1.821152   -1.983697
N       2.953413   -2.669587   -1.810302
O       4.221609   -2.064498   -1.848500
C       0.536430   -2.016900   -1.828239
O       0.050181   -2.995877   -0.953812
H       1.253078    1.767120    0.065310
H      -0.509282    1.774689   -0.062020
H       0.264603    1.413674    1.486905
H       1.183533   -0.718460    0.571247
H      -0.562140   -0.704593    0.417895
H      -0.312586    0.067300   -1.986965
H       1.939557    0.093802   -3.045695
H       2.636571    0.230488   -1.418779
H       4.808648   -2.812579   -1.693940
H       0.049537   -2.182455   -2.797139
H       0.745060   -3.187332   -0.314659
