17

C      -0.071638    1.568367   -0.011681
C      -0.105595    0.039808   -0.057271
C       0.766761   -0.536081   -1.188082
C       0.792013   -2.029972   -1.192834
N       1.234237   -2.816923   -0.223758
C       1.022482   -4.067418   -0.717804
N       0.480839   -4.116955   -1.923045
N       0.339785   -2.798609   -2.208489
H       0.947355    1.937311    0.149037
H      -0.438250    2.005652   -0.947378
H      -0.696147    1.951489    0.800754
H       0.244363   -0.378353    0.891944
H      -1.137207   -0.309153   -0.186835
H       0.413179   -0.171674   -2.160470
H       1.794094   -0.170612   -1.070937
H       1.275591   -4.966119   -0.175152
H      -0.055751   -2.517838   -3.090862
