15

N      -0.069104    1.260976   -0.003332
C      -0.029835   -0.000132   -0.005818
O       1.098090   -0.778560   -0.017504
C       0.619593   -2.175936    0.014632
C      -0.614357   -2.072671   -0.895391
C      -1.220434   -0.957530    0.005504
C      -1.137507   -1.643698    1.371620
C      -0.029327   -2.389910    1.375900
H       0.876979    1.647809   -0.003957
H       1.451881   -2.812041   -0.275885
H      -0.367333   -1.743469   -1.908411
H      -1.221116   -2.978446   -0.917008
H      -2.163045   -0.494933   -0.271846
H      -1.820092   -1.451228    2.188110
H       0.402789   -2.950497    2.193071
