19

C      -0.370379    1.319776   -0.044991
O      -0.064394   -0.062615   -0.013059
C       0.675606   -0.545421    1.111985
C       0.628821   -2.075754    0.980102
C       2.144051   -0.036004    1.075041
C       2.869959   -0.398100   -0.205361
O       4.004257   -0.802100   -0.245063
C       0.057878   -0.138227    2.384608
C      -0.432557    0.190274    3.431846
H       0.525054    1.948448   -0.149468
H      -1.000569    1.469353   -0.924426
H      -0.918899    1.635192    0.850472
H       1.061695   -2.377950    0.022404
H       1.190171   -2.548392    1.789273
H      -0.407268   -2.417037    1.017162
H       2.144431    1.058395    1.159071
H       2.706556   -0.425066    1.927041
H       2.278887   -0.244837   -1.133273
H      -0.870541    0.474913    4.357038
