20

C      -0.066369    1.514145    0.328303
C       0.003928    0.022661    0.063089
C       1.294543   -0.573648   -0.466557
C       0.870410   -0.819836    0.961539
C      -1.307203   -0.608308   -0.391963
O      -2.284620   -0.493679    0.607835
C      -1.872580    0.021301   -1.683539
N      -1.042117    0.071364   -2.752661
O      -3.030188    0.407792   -1.714218
H       0.878716    1.886384    0.734258
H      -0.282552    2.078597   -0.586278
H      -0.859241    1.724572    1.051428
H       1.247710   -1.415794   -1.151819
H       2.127406    0.097761   -0.647397
H       1.419369   -0.316946    1.750061
H       0.523346   -1.812885    1.225024
H      -1.115552   -1.672656   -0.617563
H      -3.062257   -0.130986    0.147941
H      -0.060265   -0.120588   -2.652742
H      -1.369789    0.521752   -3.591783
