13

N       0.028344    1.336168    0.233715
C      -0.042471    0.004303   -0.021618
N      -1.177992   -0.584531   -0.183518
O      -1.139419   -1.963612   -0.516606
C       0.009889   -2.676792   -0.662948
N       0.039467   -3.900020   -0.976130
N       1.195523   -1.985428   -0.436441
C       1.293454   -0.668761   -0.105536
O       2.334798   -0.086794    0.115626
H       0.918960    1.663900    0.574498
H      -0.808704    1.816888    0.518500
H      -0.901501   -4.265686   -1.103139
H       2.044536   -2.529015   -0.520466
