19

C      -0.253727    1.586922    0.125849
C       0.026944    0.087292   -0.005301
C      -1.241694   -0.694804   -0.381978
C      -1.811656   -0.289357   -1.724690
O      -2.941706    0.081857   -1.910060
C       1.295019   -0.204658   -0.888232
C       2.069991   -0.491795    0.406455
O       3.229528   -0.622375    0.666338
C       0.785000   -0.475879    1.247114
H       0.649837    2.131396    0.419930
H      -0.606215    2.014584   -0.818777
H      -1.021251    1.776219    0.883817
H      -0.997877   -1.765718   -0.442144
H      -2.022301   -0.568155    0.374979
H      -1.089614   -0.360000   -2.572107
H       1.209554   -1.106595   -1.504770
H       1.677795    0.606381   -1.513409
H       0.800166    0.144816    2.147079
H       0.478419   -1.489286    1.529338
