16

C       0.006110   -1.206232    0.067486
C       0.004746   -0.006962   -0.010130
C       0.050024    1.448584   -0.105776
C       1.461848    1.978012   -0.075270
N       2.494406    1.713742   -1.128730
C       3.225085    2.572373   -0.139489
C       1.964598    3.443409    0.127058
O       2.041257    3.345744    1.577139
C       2.476865    2.031299    1.121755
H      -0.013534   -2.265728    0.135891
H      -0.437724    1.779886   -1.030951
H      -0.499110    1.902593    0.729167
H       2.815451    0.744426   -1.066511
H       4.262836    2.883986   -0.252319
H       1.635125    4.374760   -0.330943
H       2.755260    1.277820    1.859564
