25

C       0.342747    1.322404   -0.470801
C       0.392053   -0.197003   -0.262195
C       0.695304   -0.581849    1.188601
C       0.742646   -2.108765    1.544249
C       0.052854   -3.126828    0.643316
C       2.306563   -2.050418    1.603838
C       3.072678   -2.624334    0.412982
C       2.194441   -0.492619    1.633785
O       3.113989    0.280285    0.894933
H       1.294103    1.784824   -0.195122
H       0.124757    1.573890   -1.513808
H      -0.439142    1.773164    0.150586
H      -0.571214   -0.635126   -0.551302
H       1.127018   -0.635778   -0.950417
H       0.018081   -0.008051    1.831633
H       0.359030   -2.240915    2.561656
H       0.386331   -3.063021   -0.396483
H       0.248400   -4.147767    0.989767
H      -1.033215   -2.982404    0.649798
H       2.731255   -2.477065    2.518444
H       2.692402   -2.274905   -0.553312
H       4.130899   -2.349907    0.472479
H       3.012010   -3.717028    0.400050
H       2.271324   -0.115307    2.657031
H       3.128284   -0.047709   -0.009654
