18

C      -0.239899    1.651544    0.808295
N      -0.066202    0.261180    0.459955
C      -0.987429   -0.609886    0.331776
N      -0.667021   -1.910671   -0.008129
C       0.602078   -2.394423   -0.236142
N       0.776103   -3.617911   -0.544786
C      -2.518422   -0.493456    0.494030
C      -3.163688    0.818347    0.864946
O      -3.189979   -1.486705    0.315156
H       0.746641    2.122696    0.833875
H      -0.844108    2.209735    0.080658
H      -0.692024    1.798146    1.798365
H      -1.445538   -2.551495   -0.093368
H       1.368957   -1.626530   -0.119747
H       1.768411   -3.804332   -0.677128
H      -2.791462    1.182422    1.827051
H      -2.941432    1.590610    0.122688
H      -4.241451    0.662801    0.922512
