21

C       0.147993    1.458666   -0.364619
C      -0.107496    0.064144    0.148090
O       1.012274   -0.824091    0.242021
C       0.333539   -0.455495    1.453160
C       1.130097    0.322036    2.474456
C       2.057287   -0.593193    3.261936
C       2.743774   -0.026165    4.524258
C       2.011348   -1.166067    5.259624
O       1.324081   -1.562703    4.055031
H       1.031196    1.909103    0.092317
H       0.304200    1.436995   -1.448304
H      -0.716199    2.101853   -0.165149
H      -0.995019   -0.408020   -0.280266
H      -0.251538   -1.267322    1.888153
H       1.730465    1.097005    1.986840
H       0.442270    0.815096    3.173699
H       2.743043   -1.102571    2.571620
H       3.833793   -0.062354    4.538029
H       2.413530    0.978758    4.797363
H       2.660555   -1.965169    5.639806
H       1.314160   -0.871784    6.052906
