19

O      -0.518425    0.702620    1.673138
C      -0.337220   -0.527882    1.035060
C      -1.111609   -1.731699    1.501734
C      -1.480022   -1.037581    0.197667
C      -2.760252   -0.255540    0.122079
C      -3.183516    0.568891   -1.131158
C      -3.500816   -0.730807   -1.910318
C      -4.075863   -0.838044   -0.477473
O      -4.573121    0.550493   -0.615061
H      -0.118415    0.646459    2.546955
H       0.669057   -0.693773    0.649793
H      -0.644931   -2.710073    1.465574
H      -1.785869   -1.578013    2.338412
H      -1.181575   -1.558639   -0.706059
H      -2.945932    0.301209    1.041042
H      -2.796420    1.520895   -1.495651
H      -4.251480   -0.618704   -2.693370
H      -2.681627   -1.388897   -2.207060
H      -4.760765   -1.577112   -0.059187
