15

C      -0.060137   -1.218837   -0.239583
C      -0.025011   -0.025988   -0.092948
C       0.020058    1.407522    0.105733
C      -0.244657    1.969538    1.538751
C       1.172723    2.541925    1.481182
C       2.167006    1.484983    1.171108
N       1.406503    2.046633    0.049354
C       1.536021    3.855993    1.917447
N       1.808174    4.912764    2.301743
H      -0.096537   -2.270726   -0.384419
H      -0.596238    1.912418   -0.641137
H      -1.020158    2.734973    1.546070
H      -0.433911    1.246217    2.333633
H       3.210797    1.779521    1.154017
H       1.973189    0.464473    1.491323
