15

N       0.088764    1.285293    0.079108
C      -0.011979   -0.074284    0.072540
O       1.012448   -0.781018    0.107389
C      -1.327742   -0.679073    0.050518
C      -1.413886   -2.069774    0.051030
O      -0.432652   -2.959855    0.074781
N      -2.720427   -2.425066    0.021926
C      -3.509555   -1.273637    0.005021
C      -2.680543   -0.190654    0.022351
H       1.008662    1.675840   -0.043295
H      -0.703649    1.861463   -0.144694
H       0.381531   -2.382089    0.098580
H      -3.049588   -3.375184    0.017588
H      -4.583592   -1.348250   -0.014919
H      -3.003782    0.839437    0.023966
