17

O      -0.168782    1.459783   -0.205652
C      -0.022253    0.061241    0.029761
C      -1.402669   -0.583502    0.021663
C      -1.697980   -0.848889   -1.484201
C      -0.326349   -1.308580   -2.036878
C       0.690494   -0.529195   -1.210216
O       1.842633   -0.314347   -1.488359
C      -2.783627   -1.786370   -1.718593
C      -3.673616   -2.574115   -1.899169
H       0.708368    1.803956   -0.415172
H       0.547385   -0.130971    0.948284
H      -1.372812   -1.536687    0.559264
H      -2.155428    0.052403    0.490636
H      -1.948112    0.112991   -1.947407
H      -0.181755   -2.377910   -1.834562
H      -0.185449   -1.154653   -3.108143
H      -4.463665   -3.263844   -2.065373
