20

C       0.038332    1.376292    0.183278
O       0.024492   -0.030387    0.204828
C      -1.236867   -0.569827   -0.131359
C      -1.144847   -2.077948   -0.058650
C      -0.015697   -2.693940   -0.857578
N      -1.486529   -2.642315    1.252652
C      -2.409764   -2.867545    0.110483
C      -3.718728   -2.275690    0.171825
C      -4.823876   -1.801804    0.186570
H       1.047803    1.698140    0.450670
H      -0.208885    1.772844   -0.814770
H      -0.674581    1.802599    0.906288
H      -2.013973   -0.214351    0.558783
H      -1.525949   -0.262642   -1.152168
H       0.946440   -2.336806   -0.481412
H      -0.037081   -3.786690   -0.793405
H      -0.084524   -2.414861   -1.914553
H      -0.953096   -3.492514    1.422627
H      -2.394462   -3.854533   -0.348757
H      -5.797671   -1.379302    0.212210
