23

C      -0.099570    1.544462   -0.012121
C      -0.019377    0.020000   -0.016403
O      -1.302710   -0.550679   -0.195266
C       1.132919   -0.530814   -0.910577
C       2.009422   -0.648193    0.364850
C       0.715144   -0.570541    1.218666
C       0.724150    0.035065    2.643316
C       0.694688   -1.405938    3.221370
C       0.225630   -1.912574    1.831508
H       0.879145    2.000235    0.166244
H      -0.459538    1.911472   -0.982066
H      -0.788849    1.892787    0.762965
H      -1.728224   -0.110619   -0.938772
H       0.860674   -1.510960   -1.309672
H       1.494166    0.103574   -1.725152
H       2.617938   -1.549612    0.472003
H       2.654705    0.224345    0.507963
H       1.570878    0.675368    2.907751
H      -0.202490    0.576784    2.859264
H       1.696494   -1.764089    3.474284
H       0.036363   -1.593702    4.072819
H      -0.861134   -1.998884    1.767502
H       0.674461   -2.831506    1.443859
