22

C      -0.110112    1.590393    0.099238
C      -0.048032    0.062601    0.017694
C       0.840185   -0.544244    1.113671
C       0.831049   -2.078600    1.170454
C       1.338930   -2.746688   -0.106189
C       1.423060   -2.670652    2.497015
N       0.077544   -3.157030    2.806903
C      -0.521365   -2.666241    1.675578
O      -1.654479   -2.694157    1.268794
H       0.886393    2.036404    0.000858
H      -0.739465    2.004879   -0.694233
H      -0.525194    1.919276    1.058543
H      -1.054914   -0.360424    0.101526
H       0.329188   -0.230265   -0.969214
H       1.876671   -0.201386    0.982701
H       0.511609   -0.156996    2.087886
H       2.339439   -2.383242   -0.367098
H       1.391648   -3.833766    0.011269
H       0.671438   -2.538474   -0.946325
H       2.166042   -3.463503    2.360566
H       1.804701   -1.926685    3.204254
H      -0.296188   -3.658308    3.599154
