19

C      -0.228609    1.629961    0.138692
C      -0.078431    0.113807   -0.020197
C       0.841912   -0.526155    1.026122
C       0.789785   -2.065721    1.086553
N       2.131918   -2.439730    1.525130
C       3.097141   -1.495617    1.251872
N       4.368781   -1.542782    1.305051
C       2.335500   -0.236318    0.847790
O       2.835678    0.779222    0.445558
H       0.740543    2.125121    0.055277
H      -0.894354    2.035031   -0.629275
H      -0.656561    1.880879    1.116004
H      -1.064018   -0.364505    0.048993
H       0.306708   -0.119436   -1.020714
H       0.584700   -0.136926    2.022533
H       0.034410   -2.431060    1.788737
H       0.553021   -2.478297    0.094329
H       2.384172   -3.410666    1.623301
H       4.700713   -2.470828    1.579226
