17

O      -0.132086    1.428312    0.020400
C       0.022919    0.071617    0.026205
C       0.033863   -0.991741   -1.039656
C       1.283716   -1.657617   -0.461653
C       0.933475   -0.949497    0.877124
C      -0.383775   -1.623595    1.286985
C      -0.662083   -2.815441    2.083682
O      -0.921531   -1.486594    2.586611
C      -1.043411   -0.986494    0.090827
H       0.623774    1.824382   -0.428531
H      -0.279899   -0.913635   -2.073220
H       1.327351   -2.752086   -0.435722
H       2.196936   -1.264664   -0.917607
H       1.683955   -0.704945    1.625239
H      -1.549555   -3.413910    1.881579
H       0.151094   -3.346264    2.577919
H      -2.095746   -0.889341   -0.139335
