16

O       0.135145    1.368086   -0.104140
C      -0.020984   -0.015179   -0.019751
C      -0.459310   -0.739277    1.239879
C      -1.165180    0.106159    2.278781
O      -2.092912    0.919011    1.539759
C      -2.541880    0.159489    0.415740
C      -1.357567   -0.709768    0.013218
O      -1.613839   -1.870851   -0.712097
H      -0.565524    1.765939    0.432004
H       0.747879   -0.520313   -0.596431
H       0.047446   -1.649454    1.538204
H      -1.693564   -0.527903    3.005766
H      -0.511715    0.793460    2.824980
H      -3.392295   -0.489985    0.671740
H      -2.861272    0.876944   -0.347796
H      -1.616853   -1.645408   -1.648852
