20

C      -0.114188    1.381123    0.152601
N       0.088798   -0.040929   -0.044917
C       0.538950   -0.567740   -1.218814
O       0.842884    0.118154   -2.181870
C       0.610336   -2.093847   -1.240561
C       1.513729   -2.610912   -2.359191
C       3.013864   -2.414700   -2.079266
C       1.223264   -4.056114   -2.700839
O       0.334627   -4.722192   -2.231801
H       0.467564    1.750298    1.004254
H       0.220799    1.884907   -0.754593
H      -1.170986    1.617434    0.321902
H      -0.157950   -0.672608    0.698965
H       0.942885   -2.475164   -0.267655
H      -0.402604   -2.487692   -1.385422
H       1.282092   -2.033293   -3.267012
H       3.624775   -2.817008   -2.894074
H       3.236348   -1.349463   -1.987157
H       3.314229   -2.917064   -1.152961
H       1.916042   -4.486700   -3.461343
