15

O       0.111613    1.405069   -0.057178
C       0.068585    0.014006    0.148571
C      -1.376001   -0.499710    0.019037
O      -1.914420   -0.062121   -1.228219
C      -1.466302   -1.985671    0.159025
C      -1.899947   -2.809115    1.147762
O      -1.744960   -4.073582    0.760574
N      -1.189972   -4.027057   -0.550517
N      -1.040930   -2.817286   -0.858550
H      -0.433898    1.568172   -0.837996
H       0.702902   -0.533345   -0.569788
H       0.454004   -0.187196    1.153977
H      -1.985659   -0.017226    0.789659
H      -1.578379   -0.657240   -1.910800
H      -2.321781   -2.640048    2.124800
