18

C       0.862580    1.377020   -0.023714
C       0.035102    0.089860    0.046086
O       0.236097   -0.668287   -1.160248
C       0.979510   -1.796495   -1.105037
N       1.444113   -2.422184   -0.112650
C       1.178045   -1.944566    1.237962
C       2.498481   -1.775617    2.011518
C       0.343743   -0.673151    1.334085
O      -0.052490   -0.234430    2.388279
H       1.933279    1.152272   -0.049552
H       0.603970    1.932726   -0.928218
H       0.652767    1.994694    0.852319
H      -1.030013    0.341390    0.069325
H       1.149814   -2.162628   -2.115993
H       0.596332   -2.721811    1.753274
H       3.126007   -1.009324    1.545819
H       2.294876   -1.486166    3.044419
H       3.048254   -2.719216    1.994978
