20

C      -0.834568    0.299297    0.541441
C       0.442145    0.522966   -0.268259
N       0.595652   -0.526873   -1.274077
C       1.714138   -1.060470   -1.446622
O       2.935386   -0.858445   -0.839390
C       3.500600   -2.061595   -1.487870
C       3.840704   -3.140711   -0.488592
C       2.180883   -2.220996   -2.297210
O       1.476259   -3.426391   -2.149671
H      -1.704531    0.248841   -0.119591
H      -0.781187   -0.639719    1.101358
H      -0.985545    1.114258    1.256263
H       0.372488    1.482789   -0.796466
H       1.313032    0.585766    0.397551
H       4.365665   -1.766184   -2.087762
H       2.952910   -3.450436    0.066723
H       4.237773   -4.017497   -1.009460
H       4.597995   -2.781500    0.213923
H       2.302152   -1.965700   -3.357700
H       0.583284   -3.194764   -1.868948
