16

C      -0.054945    1.553077   -0.041344
C      -0.014819    0.022938   -0.003164
C      -1.400895   -0.616322    0.071703
O      -2.225108   -0.257816   -1.047449
C      -1.360529   -2.142531    0.181479
O      -2.662468   -2.685055    0.178466
H       0.949261    1.973192   -0.148952
H      -0.666539    1.903967   -0.876952
H      -0.491043    1.956764    0.878670
H       0.503391   -0.361818   -0.894254
H       0.573578   -0.318376    0.857952
H      -1.946273   -0.223942    0.938972
H      -1.731258   -0.468341   -1.849533
H      -0.752551   -2.546148   -0.650514
H      -0.875105   -2.446354    1.115747
H      -3.151874   -2.158861   -0.467910
