16

O      -0.015234    1.337923   -0.051972
C      -0.037161   -0.071538   -0.010342
C       0.594624   -0.492957    1.333265
N      -0.550203   -0.605541    2.222497
C      -1.759803   -0.700945    1.609535
O      -2.845958   -0.827735    2.129998
C      -1.470890   -0.633370    0.091666
C      -2.557099    0.101656   -0.654479
O      -2.359000    0.971089   -1.471823
H      -0.603700    1.601382   -0.774241
H       0.512544   -0.506431   -0.855738
H       1.133680   -1.445292    1.243825
H       1.292712    0.279392    1.664895
H      -0.478917   -0.659730    3.225931
H      -1.508583   -1.674675   -0.264837
H      -3.583028   -0.224967   -0.396774
