13

O       0.040860    1.367932    0.010235
C      -0.011943    0.023534    0.003064
C      -1.179845   -0.665434    0.003343
C      -1.183233   -2.119364   -0.004760
O      -2.162637   -2.845374   -0.005660
N       0.105053   -2.667855   -0.012238
N       1.283934   -2.011730   -0.012740
C       1.221344   -0.726450   -0.005366
O       2.356024    0.020136   -0.005739
H       0.969988    1.635538    0.009165
H      -2.135941   -0.159249    0.009509
H       0.171999   -3.675373   -0.018259
H       3.110657   -0.583349   -0.010521
