19

C      -0.072665    1.377392    0.016892
N      -0.039557   -0.048050    0.239785
C      -1.176880   -0.902313    0.100581
C      -1.310206   -1.718033   -1.176110
C      -0.609620   -2.292639    0.045354
N       0.804207   -2.116008    0.157586
C       1.770195   -3.139239   -0.162627
C       1.145273   -0.769439    0.166451
O       2.268393   -0.308859    0.107714
H       0.952020    1.744168    0.098183
H      -0.462703    1.627183   -0.979660
H      -0.695552    1.877807    0.767187
H      -2.054456   -0.647652    0.685267
H      -2.295017   -2.110787   -1.405446
H      -0.706619   -1.437741   -2.032772
H      -1.042816   -3.126898    0.586837
H       1.638098   -3.521934   -1.184262
H       2.761281   -2.690100   -0.078206
H       1.695396   -3.981810    0.534386
