18

N      -0.133707    1.479235   -0.095075
C       0.017375    0.214611    0.044430
N      -1.025016   -0.665066    0.091018
C      -2.399236   -0.265062   -0.088772
C      -3.094555   -0.436639   -1.472256
C      -4.377953   -0.860061   -0.706931
C      -3.493348   -1.165864    0.533816
C       1.321576   -0.418937    0.188508
N       2.373984   -0.887066    0.291488
H       0.760204    1.961161   -0.057861
H      -0.807166   -1.647912    0.059230
H      -2.480870    0.767441    0.253665
H      -3.137376    0.435839   -2.126687
H      -2.661405   -1.275834   -2.025698
H      -5.044631   -0.012285   -0.529262
H      -4.963537   -1.682763   -1.120099
H      -3.179344   -2.215839    0.545908
H      -3.864891   -0.902404    1.526286
