18

C      -0.039540    1.369441   -0.162549
N      -0.008880   -0.024818    0.211665
C      -1.182608   -0.920792    0.082589
C      -0.652179   -2.126478    0.888977
C       0.594348   -2.252129   -0.027844
C      -0.098639   -2.308766   -1.396732
C      -1.177258   -1.523749   -1.336247
C       1.126788   -0.795838    0.056636
O       2.267271   -0.402803   -0.043264
H       0.982117    1.750375   -0.105030
H      -0.408718    1.510405   -1.189123
H      -0.676199    1.943301    0.518945
H      -2.096959   -0.435733    0.422375
H      -0.422904   -1.871825    1.926871
H      -1.302186   -3.001213    0.836056
H       1.346576   -3.007473    0.184140
H       0.294711   -2.843586   -2.250492
H      -1.876739   -1.282515   -2.125060
