19

O       0.067614    0.028977    0.346934
C       0.019952    1.214794    0.090876
C      -1.305185    1.953920   -0.102204
N      -1.273088    3.089778   -1.020502
C      -0.148236    3.987501   -0.751207
C       1.215939    3.291322   -0.868524
C       1.272611    2.048586    0.004204
C       2.102591    1.999479    1.257195
N       2.539534    1.312490    0.046707
H      -2.063403    1.230539   -0.413152
H      -1.606146    2.319471    0.892047
H      -1.209299    2.749019   -1.975420
H      -0.203010    4.834886   -1.441815
H      -0.280065    4.392448    0.261191
H       1.377813    2.994726   -1.913632
H       2.035085    3.970540   -0.607587
H       2.676849    2.881697    1.529228
H       1.733645    1.405836    2.089264
H       2.305556    0.322043    0.133048
