19

C      -0.166431    1.570495   -0.034609
C      -0.013141    0.057514   -0.045903
C       0.756576   -0.602496   -1.194422
N       2.166833   -0.132569   -1.076040
C       1.697781   -1.290155   -0.267834
C       2.374488   -2.624039   -0.315255
C       1.038836   -0.604309    0.945869
O       1.865484    0.238155    1.699353
H       0.784745    2.061933   -0.253767
H      -0.894941    1.895835   -0.785267
H      -0.510085    1.919122    0.944172
H      -0.984327   -0.431033    0.086435
H       0.376042   -0.935433   -2.153576
H       2.685616   -0.504371   -1.870355
H       2.597517   -2.920621   -1.346418
H       3.317880   -2.606530    0.242611
H       1.741407   -3.400557    0.127210
H       0.568171   -1.303398    1.641662
H       2.409015    0.703868    1.048293
