14

O      -0.070769    1.300860    0.013931
N       0.059505   -0.085905   -0.080624
C      -1.061472   -0.663216    0.008064
C      -1.426404   -2.110918   -0.075478
O      -2.248406   -2.377315    1.083703
C      -2.860173   -1.746162   -0.034951
C      -2.541776   -0.223747    0.060955
C      -3.047770    0.483366    1.298852
O      -3.633517    1.534814    1.276696
H       0.840015    1.605043   -0.070365
H      -0.902175   -2.944367   -0.522556
H      -3.720467   -2.220661   -0.489649
H      -2.818251    0.346999   -0.829769
H      -2.847901   -0.057840    2.246041
