19

C      -0.099631    1.402221    0.039884
N       0.025318   -0.023834    0.225393
C      -1.101373   -0.916804    0.152503
C      -1.244480   -1.727191   -1.114975
C      -0.435011   -2.285490    0.038263
N       0.988282   -2.057297    0.020251
C       1.160925   -0.779606    0.064964
C       2.546338   -0.193616   -0.019045
O       3.509290   -1.207908   -0.097140
H       0.847858    1.894462    0.269960
H      -0.391635    1.669644   -0.986415
H      -0.858395    1.801178    0.721846
H      -1.956363   -0.667908    0.772582
H      -2.213593   -2.181807   -1.287265
H      -0.716073   -1.407497   -2.007360
H      -0.783363   -3.173679    0.551477
H       2.607263    0.471201   -0.897339
H       2.725194    0.441333    0.864063
H       3.003467   -2.037672   -0.101946
