14

C      -0.061237    1.506192    0.062604
C       0.016695    0.009458   -0.024114
C      -0.059561   -0.666043   -1.232532
C       0.026362   -2.059468   -1.171899
O      -0.039808   -2.776183   -2.299716
N       0.173317   -2.722490   -0.028112
C       0.231779   -1.955508    1.049784
F       0.377564   -2.609996    2.186750
N       0.165727   -0.648240    1.145169
H       0.844503    1.899663    0.534495
H      -0.179963    1.965207   -0.920789
H      -0.902646    1.799276    0.698270
H      -0.178931   -0.157848   -2.179338
H       0.038179   -3.706338   -2.041838
