19

C      -0.044481    1.646283   -0.067112
C       1.502964    1.478200    0.071994
C       1.122495    0.236233    0.980719
C      -0.058177    0.071253   -0.036226
C       0.698493   -0.167720   -1.342679
C       1.415058   -1.029149   -2.420705
C       1.719933    0.503090   -2.656659
O       0.305054    0.764237   -2.466399
C       2.002625    0.630383   -1.122967
H      -0.468981    2.044172    0.858297
H      -0.453144    2.154315   -0.933810
H       2.126595    2.283242    0.459308
H       1.848159   -0.576517    1.077557
H       0.765647    0.538150    1.967589
H      -0.960166   -0.492262    0.195561
H       2.219624   -1.692161   -2.093298
H       0.774170   -1.472098   -3.184126
H       2.208139    0.962983   -3.518541
H       2.874666    0.043185   -0.820221
