16

O       0.236117    1.378333   -0.083550
C       0.143169    0.007220    0.094240
C       0.225362   -0.525157    1.546999
N      -1.241941   -0.705951    1.560934
C      -1.349367   -0.617105    0.082012
C      -2.412055    0.376434   -0.388619
O      -2.538944    1.461947    0.119051
C      -1.445428   -1.883155   -0.622068
C      -1.540539   -2.935007   -1.198956
H      -0.496716    1.797419    0.392847
H       0.808564   -0.464447   -0.628607
H       0.809738   -1.451013    1.623789
H       0.592118    0.196055    2.284371
H      -1.584781   -1.578191    1.947459
H      -3.031067    0.059700   -1.252776
H      -1.619578   -3.864452   -1.707417
