21

C       0.114274    1.617344   -0.372171
C       0.253113    0.116914   -0.212561
C       1.498519   -0.683169   -0.431868
C       2.741857    0.022223    0.121986
C       2.124320   -0.020294    1.559480
C       2.057097    1.221571    2.440530
C       0.830794   -0.639640    0.976250
C       0.074490   -1.639043    1.652001
C      -0.551929   -2.475932    2.251186
H       1.036815    2.158388   -0.156150
H      -0.167435    1.854055   -1.404482
H      -0.668198    2.012732    0.283996
H      -0.622443   -0.416496   -0.578379
H       1.521364   -1.527477   -1.110563
H       3.652163   -0.573999    0.037817
H       2.945814    1.014757   -0.292256
H       2.631005   -0.812573    2.118877
H       1.581339    2.069025    1.941846
H       1.487977    1.010319    3.352392
H       3.063394    1.533002    2.742701
H      -1.108557   -3.213950    2.772911
