14

N      -0.019006    1.360029    0.010123
C       1.167820    2.028792    0.001871
C       2.346376    1.319691   -0.013799
N       2.418806   -0.033530   -0.021891
C       1.274277   -0.678485   -0.013936
N       1.093388   -2.024673   -0.019443
C      -0.233656   -2.179704   -0.006975
C      -1.001873   -0.977050    0.007242
C      -0.039815    0.006031    0.002962
H      -0.883604    1.883568    0.021635
H       1.118527    3.108516    0.008239
H       3.286520    1.859822   -0.020278
H      -0.659720   -3.177832   -0.008138
H      -2.076785   -0.885078    0.018505
