22

C      -0.056625    1.544632    0.196060
C      -0.039546    0.016690    0.027938
C       0.905481   -0.653790    1.031090
C      -1.447834   -0.518344    0.086116
C      -2.191795   -0.962586    1.313443
C      -2.039236   -1.910602    0.146790
C      -2.916801   -1.512663   -1.049889
C      -3.744527   -0.306627   -0.853173
N      -2.302497   -0.140495   -1.129204
H       0.943305    1.965876    0.049547
H      -0.731646    2.003156   -0.531849
H      -0.396664    1.821776    1.200495
H       0.327064   -0.202248   -0.984280
H       0.641343   -0.401413    2.063974
H       0.894060   -1.744420    0.932755
H       1.933085   -0.315417    0.866324
H      -1.537730   -1.206590    2.144399
H      -3.148103   -0.563890    1.634067
H      -1.548297   -2.871182    0.233688
H      -2.991019   -2.129525   -1.940271
H      -4.348209    0.013093   -1.698473
H      -4.168275   -0.042873    0.108591
