18

O      -0.510419    1.514231    1.503466
C      -0.209185    1.502913    0.337406
C       1.200367    1.656439   -0.188527
C       1.309783    2.714030   -1.284381
C       1.350422    4.174003   -0.908587
C       2.598489    3.488004   -1.407503
N       0.617092    2.399370   -2.509678
C       1.005684    1.392766   -3.343122
O       1.967245    0.677535   -3.163644
H      -0.987513    1.373753   -0.450068
H       1.855899    1.897415    0.651881
H       1.526362    0.698393   -0.614908
H       0.864020    4.882303   -1.570891
H       1.276446    4.421583    0.144481
H       3.388952    3.266696   -0.700029
H       2.938112    3.720317   -2.409335
H      -0.236164    2.891330   -2.725598
H       0.331727    1.300039   -4.218481
