12

N       0.032211    1.218868    0.008837
N       1.075303    2.063799    0.003207
N       2.271849    1.566060   -0.011109
C       2.379996    0.221610   -0.019362
C       3.450585   -0.650429   -0.034384
C       2.844232   -1.936402   -0.035455
N       1.497970   -1.946476   -0.022477
C       1.183671   -0.638209   -0.012293
N      -0.018942   -0.107149    0.002241
H      -0.861701    1.691179    0.020048
H       4.504151   -0.420364   -0.043354
H       3.381871   -2.878329   -0.045767
