18

C      -0.228726    1.425676    0.252847
C      -0.109398   -0.058799    0.129102
C      -0.367343   -0.827272   -0.934937
C      -0.174692   -2.304102   -0.666100
C       0.202624   -2.352777    0.815584
C       0.280593   -0.918779    1.298549
N      -0.734748   -1.832344    1.788696
C      -2.102809   -1.687476    1.700026
O      -2.705842   -0.659627    1.895257
H       0.703761    1.873237    0.618412
H      -0.476131    1.889239   -0.705517
H      -1.013446    1.677999    0.975324
H      -0.733284   -0.457939   -1.886862
H      -1.075035   -2.892013   -0.887857
H       0.629539   -2.734967   -1.276122
H       0.874589   -3.125849    1.175187
H       1.002282   -0.570315    2.032223
H      -2.604470   -2.656460    1.505678
