13

F       0.254312    0.124322   -0.011096
C      -0.029393    1.432743   -0.015838
F       1.101985    2.098612   -0.276604
F      -0.874560    1.663315   -1.032726
C      -0.644216    1.886790    1.280025
C      -1.441813    0.931676    2.113172
C      -0.098564    1.426385    2.621329
C       1.018662    0.527237    2.728899
N       1.921131   -0.182843    2.861137
H      -0.962981    2.921936    1.234001
H      -2.330365    1.298911    2.611340
H      -1.484060   -0.097859    1.780698
H      -0.118986    2.176836    3.404560
