13

O      -0.040957    0.125726    0.745390
C      -0.019543    1.216787    0.219369
N       1.091926    1.813003   -0.294920
C       2.401514    1.162164   -0.253597
C       2.918409    0.906330   -1.604124
C       3.332410    0.704060   -2.712541
C       3.360745    1.932700    0.548124
C       4.137284    2.571587    1.203648
H      -0.916798    1.853353    0.100534
H       1.024737    2.725765   -0.716685
H       2.205617    0.202701    0.244274
H       3.702928    0.515955   -3.690122
H       4.828813    3.128015    1.787178
