18

C       0.261359    1.399654   -0.284534
N       0.517800   -0.033011   -0.240980
C       0.590629   -0.615416    0.859211
O       0.472095   -0.102715    2.164336
C       0.813084   -1.402711    2.739027
C      -0.475823   -2.176428    3.107019
O      -1.542140   -1.411451    3.584192
C      -0.528901   -2.752635    1.647915
C       0.819385   -2.031590    1.316545
H       1.032454    1.880018   -0.895711
H      -0.697738    1.576546   -0.784028
H       0.238889    1.881229    0.699953
H       1.654043   -1.324932    3.427544
H      -0.282876   -2.963512    3.841970
H      -1.494292   -0.560428    3.128524
H      -0.467031   -3.841613    1.606116
H      -1.381053   -2.423649    1.050359
H       1.632754   -2.599558    0.872717
