18

O      -0.012895    1.358186   -0.596457
C       0.070417   -0.028636   -0.265327
C      -1.321678   -0.547976    0.128968
O      -2.263304   -0.112209   -0.837102
C      -1.379463   -2.066086    0.202467
C      -2.671556   -2.764713   -0.102662
N      -1.558850   -2.850327   -1.042785
C      -0.497797   -2.730410    1.201023
O       0.131782   -2.150344    2.053589
H      -0.049880    1.858863    0.225618
H       0.407083   -0.531712   -1.177686
H       0.794593   -0.219675    0.531582
H      -1.575502   -0.144995    1.123467
H      -1.938237    0.751386   -1.129984
H      -2.915330   -3.689803    0.412740
H      -3.509590   -2.119244   -0.342299
H      -1.724304   -2.172409   -1.786466
H      -0.474975   -3.837299    1.102780
