19

C      -0.167554    1.505737    0.051844
C       0.115708    0.003676   -0.051872
C       0.764304   -0.572459    1.200387
C      -0.073293   -0.666726    2.510663
C       0.595653   -2.025006    2.793209
O      -0.274767   -2.992162    3.334440
C       0.987267   -2.109292    1.292066
H       0.756703    2.072889    0.209972
H      -0.639886    1.886941   -0.858882
H      -0.836906    1.725097    0.890716
H      -0.820882   -0.535385   -0.248014
H       0.765693   -0.189658   -0.915932
H       1.705942   -0.046156    1.399217
H       0.022308    0.121251    3.260773
H      -1.134053   -0.823766    2.287839
H       1.489313   -1.899611    3.422375
H       0.223825   -3.803521    3.474249
H       0.212691   -2.652008    0.739904
H       1.969043   -2.511373    1.027669
