13

O      -0.287161    0.020915    0.001826
C      -0.094957    1.216306    0.009154
N       1.127445    1.826437    0.002205
C       2.368759    1.177759   -0.012956
C       3.606407    1.793706   -0.018298
N       4.516508    0.786526   -0.033828
N       3.960732   -0.433872   -0.038884
C       2.649126   -0.211431   -0.025986
H      -0.911661    1.964078    0.020301
H       1.132238    2.834447    0.008676
H       3.894849    2.832594   -0.012530
H       5.518459    0.868067   -0.041524
H       1.942762   -1.022880   -0.026312
