17

O       0.147480    1.392337   -0.235294
C       0.031782    0.017014    0.000550
C       0.243392   -0.583281    1.441202
C      -1.105317   -1.295106    1.306729
C      -2.217860   -0.258217    1.144597
C      -2.204328    1.031058    1.777262
C      -2.186056    2.116314    2.301647
C      -1.347651   -0.657008   -0.044269
O      -1.905061   -1.248914   -1.158084
H      -0.420394    1.846290    0.400553
H       0.694677   -0.476296   -0.715724
H       1.099572   -1.257565    1.499538
H       0.306177    0.153024    2.246460
H      -1.343496   -2.298344    1.635937
H      -3.200336   -0.716978    1.067406
H      -2.186800    3.065568    2.778176
H      -2.258947   -0.553720   -1.725085
