21

C      -0.258194    1.522096    0.186002
C      -0.015342    0.032469    0.056213
C      -1.203693   -0.758238   -0.456292
C       1.358066   -0.439371   -0.325103
C       0.862293   -0.665583    1.102051
C       1.448003    0.048355    2.196272
C       1.945770    0.645692    3.119774
C       2.496558    1.358808    4.269464
O       1.571885    2.243460    4.892540
H       0.608161    2.036592    0.607508
H      -0.476209    1.961257   -0.794256
H      -1.114618    1.723864    0.839457
H      -1.494269   -0.416787   -1.456797
H      -0.979054   -1.827468   -0.522470
H      -2.072120   -0.636508    0.201169
H       1.455248   -1.315567   -0.957617
H       2.137592    0.302601   -0.456722
H       0.569264   -1.686460    1.333553
H       2.895198    0.627418    4.991453
H       3.341217    1.985321    3.960716
H       0.758471    1.748381    5.034848
