17

C      -0.155167    1.555052   -0.011982
C       0.010670    0.031381    0.007985
C      -1.309719   -0.567853   -0.206721
N      -2.371786   -0.992494   -0.379159
C       1.202435   -0.666481   -0.757076
C       2.156423   -0.134869    0.352118
C       0.903650   -0.674566    1.101956
C       0.982971   -1.908650    0.155790
H       0.787459    2.080928    0.139540
H      -0.573846    1.876488   -0.970308
H      -0.850081    1.869303    0.772473
H       1.357096   -0.652067   -1.836384
H       3.070580   -0.714137    0.496504
H       2.368510    0.932497    0.390900
H       0.712295   -0.669498    2.175452
H       0.070380   -2.486869    0.006596
H       1.851848   -2.554914    0.292628
