18

C      -0.054611    1.518762    0.021090
C      -0.023169    0.014477    0.012426
C       0.794473   -0.968356   -0.886656
C       1.993533   -1.017928    0.063231
C       0.748777   -0.970174    0.953537
N      -0.006474   -1.947884    0.012047
C      -1.200113   -0.977705   -0.031191
C      -2.118865   -1.038321    1.086446
C      -2.876745   -1.061353    2.020416
H       0.955975    1.937075    0.080380
H      -0.527300    1.907635   -0.887461
H      -0.624818    1.886190    0.880796
H       0.751918   -1.064683   -1.973636
H       2.556700   -1.954487    0.076301
H       2.654063   -0.147846    0.079733
H       0.653723   -1.067010    2.035140
H      -1.737698   -1.044259   -0.985111
H      -3.549110   -1.094872    2.841734
