12

C       0.079726    1.442709    0.009281
C       0.037387   -0.006960    0.001566
C      -0.007562   -1.213687   -0.004746
C      -0.060731   -2.648767   -0.012084
O      -1.085303   -3.301072   -0.005963
C       1.243046   -3.298862   -0.027816
C       2.311506   -3.866354   -0.040858
C       3.520098   -4.499015   -0.055453
N       4.551334   -5.033618   -0.067880
H       1.110060    1.811620    0.001830
H      -0.437008    1.846437   -0.868022
H      -0.420710    1.836567    0.900404
