21

C      -0.139018    1.570611   -0.182285
C       0.058161    0.063399   -0.078469
C       1.132017   -0.614294   -0.945237
C       2.514055   -0.229089   -0.497897
C       1.752746   -1.253524    0.297730
C       0.730434   -0.561684    1.196106
C       1.147161    0.234080    2.451019
O       0.334396   -0.596314    3.306792
C      -0.119451   -1.380634    2.187348
H       0.799753    2.117203   -0.047126
H      -0.538408    1.839096   -1.166378
H      -0.846359    1.931862    0.572416
H      -0.905122   -0.437279   -0.229757
H       0.956155   -1.057095   -1.918350
H       3.322268   -0.622843   -1.105918
H       2.719077    0.754203   -0.081260
H       2.120042   -2.263561    0.440442
H       2.213176    0.175097    2.707436
H       0.830467    1.284779    2.484339
H      -1.207025   -1.308199    2.046820
H       0.155444   -2.439657    2.286741
