21

C       0.143042    1.530189   -0.063782
C      -0.050801    0.005709    0.005810
C      -1.553973   -0.319679    0.126890
C       0.589850   -0.726096   -1.216500
C       1.434227   -1.861440   -0.631554
C       1.576704   -3.196719   -1.235258
O       2.634893   -2.242306   -1.323969
C       1.502056   -1.608487    0.830734
C       0.708030   -0.597134    1.176611
H       1.204390    1.789732   -0.126557
H      -0.361537    1.948067   -0.942115
H      -0.272726    2.021668    0.823098
H      -2.111216    0.100804   -0.717840
H      -1.722714   -1.400973    0.143651
H      -1.976291    0.099564    1.046845
H      -0.162990   -1.083743   -1.924041
H       1.258135   -0.053522   -1.763089
H       1.777168   -4.063726   -0.605247
H       1.061646   -3.416868   -2.170647
H       2.122892   -2.202058    1.491542
H       0.565638   -0.229084    2.188145
