21

C      -0.359049    1.371894    0.203857
C       0.088822   -0.049393   -0.190875
C       0.903441    0.005623   -1.470240
O       0.596487   -0.517514   -2.509524
C       0.934752   -0.651787    0.919655
O       0.260885   -1.000998    2.130752
C       0.897676   -2.055253    1.376077
C      -0.035893   -3.079970    0.769444
C       2.131065   -2.632431    2.038968
H       0.501271    2.040391    0.322328
H      -1.021757    1.800197   -0.553177
H      -0.892149    1.334579    1.157177
H      -0.786176   -0.671759   -0.387022
H       1.844916    0.600582   -1.385355
H       1.871670   -0.110687    1.085942
H      -0.960460   -2.628019    0.408688
H       0.448632   -3.597964   -0.064870
H      -0.301221   -3.831476    1.520871
H       1.844965   -3.323368    2.839254
H       2.735654   -3.190063    1.315652
H       2.747281   -1.842096    2.474347
