15

C      -0.108925    1.584873    0.044324
C       0.027223    0.055936   -0.036929
C       0.814965   -0.475423   -1.203453
C       1.819688   -1.235859   -0.735561
N       1.806239   -1.290349    0.670045
C       0.781109   -0.511647    1.185405
O       0.552463   -0.321347    2.354306
C       2.809522   -1.938584   -1.473048
N       3.625023   -2.515927   -2.057540
H       0.870340    2.068634   -0.010757
H      -0.726563    1.964337   -0.773904
H      -0.574215    1.855352    0.995391
H      -0.979618   -0.385219   -0.025182
H       0.606879   -0.287061   -2.245305
H       2.498963   -1.748325    1.240050
