18

C      -0.194150    1.472205    0.020029
C       0.037420   -0.018610    0.014457
O      -1.174738   -0.773862    0.299831
C      -0.528310   -1.505999    1.360883
C       0.798252   -0.752035    1.150081
C       1.915284   -1.516053    0.444032
O       1.572181   -1.542230   -0.953964
C       0.681078   -0.550943   -1.258505
N       0.400793   -0.159153   -2.423560
H       0.753609    2.012008   -0.073042
H      -0.820784    1.742091   -0.833878
H      -0.691179    1.777276    0.944545
H      -1.020035   -1.339015    2.326094
H      -0.491803   -2.584179    1.158940
H       1.149124   -0.155822    1.991713
H       2.884242   -1.014855    0.557922
H       2.017700   -2.551686    0.780111
H       0.935463   -0.678265   -3.122507
