16

C       0.009216    1.562980    0.127559
O       1.475674    1.592420   -0.140243
C       1.232774    0.371684   -0.962056
C       1.339320   -1.209692   -1.020486
C       1.643326   -1.693858    0.391582
C       0.666192   -0.735986    1.126451
C       0.112246    0.026592   -0.095703
O      -0.163163   -1.129291   -1.031435
H      -0.222037    1.926474    1.131927
H      -0.537247    2.120206   -0.639237
H       0.927455    0.707328   -1.956517
H       1.731658   -1.735501   -1.891387
H       1.390941   -2.748972    0.513908
H       2.691219   -1.547484    0.666962
H      -0.144916   -1.261591    1.635837
H       1.166151   -0.075399    1.836359
