16

C       0.004039    1.507155   -0.039759
C       0.002726    0.013890    0.019454
N      -0.031587   -0.695157   -1.085833
O      -0.022805   -2.023925   -0.700039
C       0.017174   -2.082881    0.654363
C       0.032532   -3.351467    1.264363
C       0.046178   -4.426773    1.805668
C       0.035505   -0.819864    1.179151
C       0.079254   -0.411610    2.614412
H       0.901557    1.918201    0.434794
H      -0.025967    1.840363   -1.078602
H      -0.862244    1.921812    0.486856
H       0.057800   -5.378909    2.276204
H       0.971344    0.185847    2.834554
H      -0.790740    0.197625    2.884798
H       0.092051   -1.289258    3.264886
