15

C      -0.007810    1.408145    0.021950
C       1.429290    1.980739    0.009868
C       2.158783    1.232998   -1.046712
C       1.716609    0.083696   -1.618916
C       0.435914   -0.578400   -1.220201
O      -0.015817   -0.010551    0.004292
N       2.649270   -0.280208   -2.556367
N       3.599579    0.540487   -2.582391
O       3.319041    1.572260   -1.589238
H      -0.529928    1.702291    0.935154
H      -0.567142    1.808122   -0.838275
H       1.415729    3.057063   -0.191864
H       1.911609    1.835161    0.983591
H      -0.330243   -0.468473   -2.005188
H       0.570187   -1.647796   -1.034099
