19

C       0.206890    1.720744    0.123719
N       0.128356    0.267888    0.055766
C       1.239690   -0.569352   -0.359835
C       2.658739   -0.024014   -0.332685
N       2.854502    0.404975    1.052512
C       1.818925   -0.080824    1.965503
C       0.728589   -0.607417    1.048998
C       3.891195    1.164222    1.487069
O       4.068918    1.492613    2.642942
H       1.160346    2.129722    0.482947
H       0.013949    2.124018   -0.875217
H      -0.588210    2.078666    0.784643
H       1.014437   -1.331060   -1.101194
H       3.357254   -0.822328   -0.620079
H       2.809767    0.814276   -1.023559
H       2.196338   -0.887145    2.607907
H       1.497816    0.732436    2.624548
H       0.092400   -1.401218    1.430320
H       4.567922    1.461977    0.660551
