25

C      -0.892990    0.912966   -0.152997
C       0.265132   -0.050091    0.056968
C       1.545793    0.119115   -0.810724
C       2.416355   -0.155392    0.453356
C       1.151743    0.111025    1.325657
C       2.959496   -1.569037    0.548185
C       4.181742   -1.969413   -0.330548
C       4.730213   -2.786203    0.870201
C       3.788329   -1.977499    1.802198
H      -0.554874    1.953911   -0.086695
H      -1.353608    0.775603   -1.138113
H      -1.674550    0.769018    0.601942
H      -0.101010   -1.080336   -0.014468
H       1.674260   -0.556804   -1.661474
H       1.655038    1.147828   -1.169114
H       3.240164    0.550509    0.607979
H       1.124553    1.136936    1.706962
H       0.969162   -0.571280    2.161284
H       2.147556   -2.291736    0.395671
H       3.990580   -2.499259   -1.267095
H       4.811508   -1.099758   -0.547448
H       4.436428   -3.838368    0.812020
H       5.803692   -2.739315    1.068396
H       4.298087   -1.110311    2.235885
H       3.276322   -2.513940    2.604994
