17

O       0.416800    0.777290    0.817907
C      -0.191774   -0.176914   -0.000120
C      -1.619804    0.158854   -0.441655
C      -1.855341   -0.709054   -1.725900
C      -0.447897   -0.892268   -2.361033
C       0.533378   -0.344016   -1.333018
O       1.674796    0.001295   -1.507854
C      -2.478514   -2.041114   -1.360036
O      -3.609857   -2.359446   -1.613050
H       1.311608    0.896263    0.463513
H      -0.190868   -1.172653    0.485702
H      -2.367735   -0.024875    0.332681
H      -1.663882    1.221432   -0.701459
H      -2.550829   -0.210409   -2.402831
H      -0.209526   -1.942195   -2.572741
H      -0.334344   -0.352427   -3.304102
H      -1.798356   -2.736820   -0.810296
