20

C       0.331147    1.602022    0.037825
C       0.153679    0.092852    0.074322
N       0.753939   -0.680616   -1.049288
C      -0.135910   -1.195757   -2.071994
C       1.429285   -1.652830   -0.146961
C       2.914998   -1.829497   -0.453530
O       3.522614   -0.582535   -0.704426
C       1.037534   -0.732820    1.023630
O       1.316889   -0.675455    2.182182
H       1.387011    1.859558   -0.081846
H      -0.231328    2.043697   -0.790853
H      -0.030373    2.044126    0.971138
H      -0.906237   -0.170941    0.236980
H      -0.589729   -0.366347   -2.623360
H       0.428933   -1.800646   -2.788008
H      -0.949041   -1.820536   -1.659717
H       0.919959   -2.627968   -0.072321
H       3.411993   -2.280389    0.412118
H       3.035271   -2.519506   -1.306111
H       2.892105   -0.112912   -1.270414
