20

C       0.111096    1.623823    0.149220
C       0.008401    0.095248   -0.019754
C       0.665235   -0.437811   -1.251980
C       0.109238   -0.723822   -2.482148
O      -1.222679   -0.549314   -2.753620
C       1.129989   -1.188685   -3.351475
C       2.297812   -1.172853   -2.619759
N       2.021966   -0.715182   -1.360438
C       2.987500   -0.618260   -0.288775
H       1.153269    1.952775    0.219184
H      -0.339432    2.134167   -0.706905
H      -0.405881    1.953422    1.056889
H       0.412488   -0.397094    0.874713
H      -1.049169   -0.184501   -0.068381
H      -1.406133   -0.924235   -3.619204
H       1.024681   -1.489118   -4.383333
H       3.302622   -1.452872   -2.893864
H       3.038196    0.398463    0.114452
H       2.748325   -1.303121    0.532957
H       3.972264   -0.882066   -0.678809
