16

C      -0.003655    1.536689   -0.096370
C      -0.030220    0.041270    0.061089
O       1.249748   -0.655082   -0.081346
C       0.616907   -0.654808    1.157637
C       1.174662   -0.236327    2.530641
N      -0.152283   -0.779002    3.071919
C       0.247502   -1.851613    2.052239
C       1.675042   -1.706884    2.657520
O       2.541373   -2.350898    3.155837
H       0.847143    1.970365    0.434543
H       0.071561    1.810255   -1.153535
H      -0.925614    1.972767    0.302098
H      -0.846155   -0.474399   -0.445801
H       1.597634    0.708054    2.864126
H      -0.020091   -1.136188    4.022194
H      -0.373183   -2.719681    1.844257
