20

C      -0.025592    1.510535   -0.030701
C       1.385640    2.142795    0.021711
C       2.281864    1.589838    1.157536
C       2.260221    0.076411    1.021919
N       3.013969   -0.806037    1.941954
C       2.272733   -1.835002    2.035997
O       1.038515   -1.839351    1.450040
C       0.831411   -0.432236    1.162022
C      -0.023600   -0.041013   -0.021017
H      -0.604808    1.858916    0.834529
H      -0.554116    1.871987   -0.918652
H       1.891709    1.960114   -0.935561
H       1.288617    3.229555    0.114840
H       3.297815    1.987529    1.072768
H       1.895392    1.889154    2.139758
H       2.626685   -0.163686    0.008807
H       2.529891   -2.754713    2.550032
H       0.389127   -0.003954    2.076645
H      -1.046425   -0.422318    0.061127
H       0.406501   -0.437319   -0.948318
