15

O      -0.034101   -0.063364    0.492525
C      -0.068315    1.073446    0.093608
C      -1.329307    1.916785    0.033358
C      -1.654322    2.304425   -1.418545
O      -0.491274    2.703186   -2.167950
C       0.310596    3.644426   -1.585805
O       0.338413    4.791238   -1.904247
O       1.119135    3.153878   -0.620297
C       1.210249    1.738262   -0.424060
H      -2.158182    1.350805    0.463298
H      -1.176172    2.820217    0.635644
H      -2.048703    1.445571   -1.965022
H      -2.395602    3.110798   -1.448126
H       2.002789    1.597365    0.313418
H       1.506483    1.237046   -1.351757
