13

C       0.064205    1.526678    0.049591
C      -0.009176    0.001916   -0.008221
C       0.769718   -0.625852   -1.199070
O       1.719275   -1.524177   -0.573863
C       1.511651   -1.388300    0.757731
N       0.612800   -0.608172    1.187988
H       1.106376    1.861152    0.081768
H      -0.414926    1.972908   -0.828378
H      -0.439619    1.898015    0.945600
H      -1.062859   -0.300403   -0.032095
H       0.144200   -1.211116   -1.877629
H       1.332016    0.113021   -1.779063
H       2.168272   -1.994192    1.372733
