17

C      -0.113320    1.519285   -0.085811
C      -0.044396    0.035994    0.057039
C       0.000375   -1.061831   -1.054953
C       1.288425   -1.539352   -0.476537
O       2.296218   -2.014813   -0.921058
C       0.902709   -0.930691    0.888893
C      -0.363839   -1.742663    1.309834
C      -1.032251   -1.068707    0.112968
O      -2.376671   -0.953834   -0.150867
H       0.826751    1.927044   -0.471814
H      -0.914472    1.798973   -0.776379
H      -0.319142    1.999093    0.877212
H      -0.329928   -0.968345   -2.081127
H       1.654038   -0.631343    1.614489
H      -0.276620   -2.834918    1.325858
H      -0.785912   -1.381542    2.252033
H      -2.689421   -1.781726   -0.533552
