19

C      -0.078805    1.432562   -0.044658
C       1.329425    0.826815   -0.046631
C       2.158707    0.396995   -1.251829
C       1.465156   -0.884269   -1.721198
C       0.946172   -1.986051   -0.770458
C       0.931289   -1.915834    0.771805
O      -0.033086   -0.899072    1.123470
C       0.090543   -0.038313    0.022055
C       0.041917   -0.885163   -1.238211
H      -0.339920    1.975766    0.857358
H      -0.511274    1.841672   -0.953705
H       1.854802    0.974049    0.890760
H       2.165932    1.126101   -2.072915
H       3.204099    0.242286   -0.960942
H       1.690278   -1.245831   -2.721270
H       0.887101   -2.972431   -1.216773
H       0.595324   -2.861186    1.206511
H       1.910909   -1.659759    1.197213
H      -0.850853   -1.000837   -1.841130
