17

O      -0.281313    1.383623   -0.768667
C      -0.005890    0.180179   -0.071040
C      -1.324366   -0.508552    0.161573
O      -1.793903   -1.437999   -0.825676
C      -1.476336   -1.934888    0.475007
C      -0.317052   -2.921176    0.566694
O       0.071109   -3.092075    1.900080
C      -0.740238   -4.249701   -0.038762
O      -0.698926   -5.270387    0.604995
H       0.548165    1.852070   -0.899986
H       0.663316   -0.474635   -0.645640
H       0.464825    0.376546    0.906022
H      -2.098170    0.165804    0.530234
H      -2.335021   -2.231147    1.080240
H       0.517316   -2.551060   -0.051131
H      -0.016219   -4.043758    2.075118
H      -1.086523   -4.223370   -1.088995
