14

N      -2.449056    1.172707   -0.163022
C      -2.268457   -0.000885    0.247600
O      -1.207174   -0.713564   -0.231426
C      -1.166135   -2.062998   -0.007829
C       0.064042   -2.652254    0.278039
N       0.185691   -3.963427    0.466387
C      -0.936594   -4.681676    0.372795
N      -2.156045   -4.224263    0.093102
C      -2.266918   -2.910112   -0.107983
H      -3.243958    1.594395    0.313113
H      -2.852533   -0.552046    0.993334
H       0.957790   -2.036880    0.346213
H      -0.843649   -5.751720    0.535961
H      -3.251050   -2.527105   -0.368228
