22

C      -0.034310    1.528511    0.010583
C       1.426773    2.067602   -0.000483
C       2.415615    0.886379   -0.016284
C       2.191869    0.019609    1.237509
C       0.730638   -0.519544    1.248565
C      -0.019122   -0.011955    0.002142
C       0.706565   -0.505931   -1.263766
C       2.167864    0.033237   -1.274825
H      -0.572935    1.886208    0.895119
H      -0.589635    1.895669   -0.859628
H       1.598907    2.703157   -0.876209
H       1.615742    2.693767    0.878538
H       3.443257    1.265598   -0.024081
H       2.910573   -0.807377    1.246529
H       2.392681    0.613520    2.136105
H       0.721473   -1.615093    1.263078
H       0.204204   -0.193978    2.152670
H      -1.046799   -0.391085    0.009899
H       0.697177   -1.601265   -1.289526
H       0.162935   -0.170759   -2.154068
H       2.351618    0.636795   -2.170629
H       2.886052   -0.793646   -1.306097
