15

C       0.024717    1.369720    0.032939
O       1.304193    1.943711   -0.007460
C       2.088387    1.660119    1.154988
C       1.859104    0.224633    1.490285
C       0.910823   -0.539318    0.865970
O       0.041094   -0.051244   -0.052982
N       0.935846   -1.837047    1.272510
C       1.910490   -1.876660    2.159731
N       2.503919   -0.659690    2.335253
H      -0.496738    1.655594    0.961219
H      -0.511316    1.726881   -0.846217
H       3.125001    1.875727    0.870923
H       1.819909    2.345273    1.977023
H       2.224414   -2.751656    2.707677
H       3.264878   -0.454135    2.960249
