18

C      -0.086065    1.511410    0.009908
C      -0.005869    0.014091    0.017838
C       1.051227   -0.774290   -0.838612
C       0.265083   -1.905036   -1.489770
C      -0.906983   -2.043069   -0.536276
C      -0.701324   -1.758664    0.908368
C       0.547447   -0.886162    1.129401
O       1.700925   -1.276527    0.366254
N      -1.340868   -0.727422   -0.018062
H       0.901754    1.954255    0.172678
H      -0.471594    1.871618   -0.950602
H      -0.760808    1.867284    0.794083
H       1.749020   -0.235103   -1.483105
H      -0.095437   -1.624046   -2.486476
H       0.871534   -2.810512   -1.576665
H      -1.724858   -2.710522   -0.792115
H      -1.280312   -2.250940    1.683190
H       0.773003   -0.580025    2.151998
