18

C       0.196004    1.216269    0.244937
O      -0.214928   -0.070181   -0.171996
C       0.506996   -0.563827   -1.265072
C       1.928240   -1.146374   -0.949046
N       1.416232   -2.530827   -1.213682
C       0.070105   -2.006466   -1.646745
C      -0.625273   -2.875864   -0.579544
C       0.809841   -3.182731   -0.095594
O       1.305667   -3.664877    0.878577
H       1.241777    1.224430    0.584102
H       0.086866    1.953424   -0.564882
H      -0.446618    1.504379    1.079325
H       0.490952    0.153742   -2.098484
H       2.709993   -0.858902   -1.656420
H       2.286625   -1.007375    0.074397
H      -0.206730   -2.161520   -2.690273
H      -1.221148   -2.344632    0.163267
H      -1.189048   -3.725915   -0.970400
