19

C      -0.764070    0.130247   -1.172224
C      -0.056264    0.394263   -0.235901
C       0.840749    0.690118    0.885127
N       1.759288    1.831377    0.763092
C       1.986941    2.482783   -0.520924
C       1.267069    3.197973    0.574545
C      -0.183738    3.548443    0.467104
C      -0.852976    4.208687    1.619768
N      -0.568444    4.969998    0.392417
H      -1.400344   -0.102915   -1.990257
H       0.251239    0.835323    1.798024
H       1.464520   -0.195483    1.059918
H       3.023212    2.714661   -0.754112
H       1.385257    2.160883   -1.368507
H       1.829773    3.923839    1.166503
H      -0.778234    2.906773   -0.174815
H      -1.906680    4.030605    1.814897
H      -0.254367    4.405484    2.506236
H       0.252971    5.555043    0.533682
