24

C      -0.127111    1.530322   -0.122812
C      -0.119927    0.016732    0.114898
C       0.756971   -0.440128    1.295613
C       0.133625   -0.099072    2.660241
O       1.072402   -0.137800    3.716798
C       1.056354   -1.945792    1.154799
N       1.661341   -2.522256    2.363043
C       0.828863   -3.425005    3.163193
C       1.942723   -3.953523    2.333814
H       0.882959    1.899606   -0.330709
H      -0.758802    1.788377   -0.978538
H      -0.507422    2.080529    0.743066
H      -1.147595   -0.339252    0.273448
H       0.229125   -0.481795   -0.799113
H       1.713492    0.098356    1.254000
H      -0.273128    0.917781    2.644690
H      -0.720131   -0.776510    2.848077
H       1.617777   -0.923173    3.557665
H       0.131160   -2.485485    0.884775
H       1.759709   -2.089421    0.325954
H       0.932472   -3.334014    4.240194
H      -0.185482   -3.611879    2.816319
H       1.674434   -4.498075    1.430115
H       2.878132   -4.261981    2.791402
