14

C      -0.257012    1.470606    0.027315
C       0.026285   -0.000216   -0.014907
N       0.150967   -0.534775   -1.181318
O       0.417372   -1.920023   -1.202841
C       0.539571   -2.668774   -0.065334
N       0.778407   -3.911698   -0.079781
C       0.368975   -1.903014    1.183308
O       0.481967   -2.601574    2.302679
N       0.126275   -0.641755    1.212554
H       0.531313    1.984670    0.586452
H      -0.316035    1.877406   -0.982089
H      -1.199510    1.652244    0.553681
H       0.861337   -4.249067   -1.041425
H       0.348470   -1.978195    3.034297
