18

C      -0.066755    1.445145    0.026797
C      -0.004475   -0.007280   -0.001217
C       0.066258   -1.213008   -0.026985
C       0.069368   -2.624456   -0.057913
C       1.118493   -3.453602   -0.194177
C       0.680018   -4.868118   -0.095693
C       0.051892   -5.252433    1.204526
N      -0.794616   -4.864688    0.074489
C      -1.211544   -3.448579    0.076407
H       0.489736    1.851988    0.878991
H       0.362701    1.878066   -0.883920
H      -1.100836    1.798071    0.106075
H       2.147198   -3.149489   -0.336386
H       1.113965   -5.624232   -0.744729
H      -0.029412   -6.299613    1.484409
H       0.172647   -4.557671    2.033458
H      -1.767951   -3.208882    0.989945
H      -1.885095   -3.265393   -0.769955
