18

C       0.004283    1.334149   -0.230429
O      -0.000387   -0.073352   -0.146579
C      -1.263492   -0.597363    0.216430
C      -1.183629   -2.086504    0.187477
C      -1.678496   -2.998517    1.033116
C      -1.385207   -4.370873    0.486956
C      -0.584342   -4.085028   -0.798191
O      -0.067683   -4.870538   -1.556859
N      -0.569035   -2.704637   -0.913944
H       1.009630    1.638242   -0.529603
H      -0.718257    1.699582   -0.976937
H      -0.235783    1.799641    0.737710
H      -1.567999   -0.260814    1.219066
H      -2.030609   -0.244282   -0.496497
H      -2.221356   -2.786142    1.941737
H      -0.788214   -5.001899    1.154992
H      -2.283769   -4.947058    0.234633
H       0.020217   -2.212922   -1.566207
