20

C      -0.129191    1.529007    0.061603
C      -0.010700    0.000437    0.014798
C      -1.426618   -0.552020   -0.190683
C       1.186463   -0.649527   -0.785914
C       2.163136   -0.122823    0.306828
C       0.921121   -0.705461    1.057356
O       0.649905   -0.699257    2.414293
C       1.038578   -1.928401    0.090031
H       0.816372    2.058341    0.175880
H      -0.602677    1.896618   -0.855677
H      -0.772410    1.825106    0.897570
H      -1.858702   -0.141988   -1.110503
H      -1.490135   -1.637757   -0.256042
H      -2.071369   -0.236355    0.636856
H       1.345184   -0.618932   -1.862214
H       3.091658   -0.690278    0.415046
H       2.354903    0.946147    0.366585
H       1.347359   -1.182448    2.870370
H       0.168746   -2.565067   -0.055115
H       1.946004   -2.529846    0.194291
