16

O      -0.143711    0.059186   -0.050535
C      -0.083454    1.249260   -0.101386
O       1.050891    1.920343    0.222825
C       1.042031    3.329634    0.048600
C       2.291687    3.961630    0.659622
C       2.583157    5.168858   -0.261432
N       1.991385    4.757370   -1.526036
C       1.111685    3.722753   -1.442766
O       0.485294    3.203693   -2.339450
H      -0.914764    1.914930   -0.386996
H       0.120445    3.757218    0.467273
H       2.173041    4.250565    1.704566
H       3.103781    3.232663    0.592603
H       2.117918    6.087989    0.119383
H       3.655456    5.356661   -0.367075
H       2.137001    5.244690   -2.396130
