19

C      -0.029197    1.705543    0.323793
C       0.000730    0.202521    0.097098
O       0.982480   -0.197688   -0.908355
C       1.535467   -1.162108   -0.005203
C       2.165706   -0.483448    1.166953
C       0.666645   -0.714246    1.137998
C      -1.375367   -0.305824   -0.295904
C      -1.724767   -0.590551   -1.691950
O      -1.468159   -1.646553   -0.759387
H       0.946637    2.073614    0.646602
H      -0.302426    2.223981   -0.600957
H      -0.766684    1.963351    1.091230
H       1.782573   -2.140341   -0.397543
H       2.697988   -1.134268    1.854316
H       2.592971    0.508309    1.052586
H       0.137530   -1.293465    1.882353
H      -2.171028   -0.011785    0.392593
H      -2.759296   -0.496527   -2.018441
H      -0.961768   -0.463288   -2.454961
