15

O       0.122952    1.307955    0.130570
C       0.092799   -0.089392   -0.006283
C      -1.315941   -0.656207   -0.132305
N      -1.305783   -0.537533   -1.633568
C       0.259297   -0.604460   -1.454619
C       0.195462   -2.136643   -1.387585
C      -1.252164   -1.898465   -0.972629
C      -2.335779   -2.831305   -1.041960
N      -3.189408   -3.610400   -1.084409
H      -0.500871    1.687144   -0.501181
H       0.764768   -0.487942    0.758920
H      -2.197695   -0.409082    0.448235
H       0.897516   -0.077640   -2.160184
H       0.239824   -2.595520   -2.377106
H       0.864319   -2.658185   -0.697242
