20

O       0.046720    1.285216    0.112939
C      -0.051063   -0.137020    0.066928
C       0.704062   -0.690303   -1.174244
C       2.124218   -0.988514   -0.627424
O       2.125404   -0.567575    0.741875
C       0.791195   -0.738933    1.201493
C      -1.519264   -0.499327    0.118866
C      -2.465291    0.281729    0.952367
N      -2.519263    0.365555   -0.519630
H       0.972796    1.493015    0.284797
H       0.226203   -1.597140   -1.553578
H       0.698896    0.053746   -1.972588
H       2.352958   -2.062160   -0.686944
H       2.919999   -0.442219   -1.139826
H       0.675593   -0.201798    2.145028
H       0.552246   -1.804189    1.355544
H      -1.704543   -1.562848   -0.019779
H      -3.313103   -0.214176    1.416424
H      -2.066603    1.132784    1.494808
H      -2.054121    1.226002   -0.802767
