17

C      -0.121453    1.549606    0.078854
C       0.144009    0.084986   -0.003092
O      -0.742855   -0.839344    0.676691
C       0.656960   -0.929340    0.956387
C       1.253770   -1.784364   -0.147413
C       2.611163   -2.437065   -0.235477
C       1.363495   -3.273831   -0.294160
C       0.750227   -0.751924   -1.149441
O       0.896755   -0.587735   -2.325530
H       0.758613    2.117175   -0.238297
H      -0.952932    1.824573   -0.578032
H      -0.380845    1.836060    1.101361
H       0.991418   -0.785048    1.976810
H       3.169736   -2.276322   -1.151592
H       3.211766   -2.469085    0.667538
H       1.108995   -3.882925    0.566514
H       1.073044   -3.692760   -1.251864
