18

C      -0.231866    1.460308    0.038318
C       0.119226    0.000996   -0.009128
O      -0.640554   -0.866516    0.850420
C       0.774244   -0.782219    1.053001
C       1.568191   -1.912495    0.420224
N       0.729365   -2.909016   -0.280753
C       1.375201   -1.829188   -1.049443
C       0.403489   -0.680412   -1.369225
O      -0.779179   -1.110990   -2.004235
H       0.582935    2.073464   -0.361382
H      -1.125095    1.649720   -0.566725
H      -0.438187    1.773594    1.064859
H       1.091156   -0.360825    2.003876
H       2.502300   -2.223582    0.874717
H       1.259948   -3.768872   -0.399478
H       2.154219   -2.082214   -1.761026
H       0.881100    0.034207   -2.047783
H      -1.142548   -1.785636   -1.413353
