18

C      -0.153187    1.374543   -0.328019
O      -0.294586   -0.007075   -0.050140
C       0.578435   -0.478626    0.952773
C       0.074729   -1.852489    1.412497
C      -1.357134   -1.763391    1.975305
C      -1.877287   -3.067678    2.375505
N      -2.275186   -4.106850    2.686989
C       2.001469   -0.632094    0.411947
O       2.986413   -0.643826    1.100082
H       0.857062    1.624753   -0.682902
H      -0.871774    1.618137   -1.112914
H      -0.368227    1.985798    0.560647
H       0.610753    0.211140    1.811735
H       0.088942   -2.544717    0.563961
H       0.761159   -2.241981    2.169128
H      -1.381972   -1.095466    2.844383
H      -2.017759   -1.329951    1.218920
H       2.039442   -0.770009   -0.693473
