16

C      -0.132596    1.498467    0.029416
C       0.157611    0.039278   -0.059522
O      -0.715499   -0.894161    0.644592
C       0.690470   -0.949824    0.911926
C       1.271053   -1.843715   -0.211440
O       0.786421   -3.149522   -0.287126
C       0.731281   -0.763136   -1.186830
N       0.826813   -0.474878   -2.415309
O       1.513766   -1.465398   -3.128431
H       0.741172    2.079182   -0.279992
H      -0.963695    1.764952   -0.630978
H      -0.401686    1.771765    1.052549
H       1.017123   -0.817444    1.936990
H       2.363637   -1.890069   -0.230822
H      -0.173774   -3.084661   -0.201817
H       1.513927   -1.110835   -4.024372
