18

C      -2.316705   -0.270729   -0.553034
C      -1.359817   -1.086891    0.173233
C      -0.571421   -1.758633    0.793765
C       0.386907   -2.556004    1.529492
O       0.450692   -2.522599    2.746616
C       1.269619   -3.419211    0.679631
C       2.600877   -3.833801    1.241177
N       1.570157   -4.820282    1.040925
C       0.948418   -5.431290    2.213515
H      -2.359879   -0.546588   -1.611595
H      -3.321112   -0.379525   -0.129915
H      -2.045075    0.788793   -0.489949
H       1.164380   -3.260950   -0.389892
H       3.456854   -3.884983    0.572842
H       2.805512   -3.499281    2.256774
H       0.841503   -4.756783    3.070227
H      -0.040633   -5.806236    1.932827
H       1.565934   -6.287136    2.503147
