18

C       0.176627    1.426017    0.004594
C      -0.080465   -0.078961    0.002760
C      -1.554796   -0.420087    0.015680
O      -2.466466    0.365201    0.029841
O      -1.737228   -1.765243    0.009385
C      -3.100823   -2.200548    0.021153
C      -3.052127   -3.730939    0.010624
C      -4.390566   -4.314643    0.021167
N      -5.454769   -4.763687    0.029688
H       1.250849    1.628809   -0.004091
H      -0.272549    1.900993   -0.871066
H      -0.257510    1.896174    0.890356
H       0.365049   -0.563346   -0.874353
H       0.380921   -0.567840    0.869172
H      -3.608966   -1.822681    0.912667
H      -3.627916   -1.811100   -0.854222
H      -2.515088   -4.077867   -0.878483
H      -2.496118   -4.089380    0.883357
