13

O       0.012155   -0.008651    0.202424
C      -0.053945    1.169420    0.080330
C      -1.125039    2.254401   -0.063240
C      -0.774756    3.234966    1.082946
C       0.041445    4.165801    0.208617
C       0.771767    3.135289    1.010909
N       1.016997    2.189242   -0.124447
C      -0.032503    3.052644   -0.865830
H      -2.157566    2.080609   -0.353646
H      -1.318745    3.431192    1.995411
H       0.124707    5.241751    0.167969
H       1.434569    3.215765    1.860862
H       0.036136    3.120565   -1.947671
