19

C      -0.017388    1.521739   -0.021719
C      -0.001146    0.065844   -0.028730
C       0.022022   -1.137777   -0.037611
C       0.013796   -2.595525   -0.041987
C      -1.405973   -3.178480    0.096063
C      -1.416357   -4.727039    0.060706
N      -0.697712   -5.418345    1.133732
C      -2.812050   -5.199086    0.046225
N      -3.918147   -5.532207    0.040536
H       0.586816    1.923361    0.799176
H       0.382068    1.928715   -0.957139
H      -1.035993    1.906865    0.098006
H       0.468682   -2.967143   -0.971205
H       0.645395   -2.966622    0.775905
H      -1.857427   -2.837482    1.034248
H      -2.034634   -2.796373   -0.714697
H      -0.964068   -5.053699   -0.885527
H       0.294756   -5.219545    1.070621
H      -1.017369   -5.090513    2.040759
