14

C      -0.517783    1.125993    0.111886
C       0.137307   -0.247742    0.152632
C       1.024111   -0.696555   -1.043600
O       2.170516   -0.835352   -0.147536
C       1.446354   -0.388523    0.937481
O       1.833278   -0.207161    2.043392
C       0.647549   -2.013959   -1.679665
O       0.101090   -2.100599   -2.746882
H       0.193832    1.896314   -0.199323
H      -1.360128    1.132818   -0.585368
H      -0.892277    1.390364    1.104569
H      -0.581194   -1.015945    0.458298
H       1.198969    0.069832   -1.801578
H       0.894274   -2.902497   -1.056512
