21

C      -0.274694    1.569424   -0.021295
C       0.028467    0.077366    0.033440
C       1.048873   -0.557758   -0.969799
O       2.099019    0.342341   -1.307937
C       2.859053    0.584300   -0.118412
C       2.346575   -0.421769    0.900444
C       1.558273   -1.468834    0.170689
C       0.851720   -0.555650    1.171902
C       0.318189   -0.873326    2.540096
H       0.633367    2.175437   -0.027303
H      -0.839623    1.815632   -0.927114
H      -0.881136    1.875405    0.838597
H      -0.910545   -0.487973   -0.038500
H       0.659603   -0.988542   -1.891616
H       3.922301    0.418620   -0.337311
H       2.739222    1.627048    0.203269
H       3.003546   -0.723998    1.708750
H       1.743104   -2.534757    0.169832
H       1.009403   -1.511018    3.101548
H       0.158936    0.037603    3.129404
H      -0.642631   -1.397507    2.475459
