19

C       0.040702    1.493706   -0.057155
C      -0.084170    0.000554    0.016402
O       0.457695   -0.687361   -1.143707
C      -0.482557   -1.755764   -0.904146
C      -0.071895   -2.595186    0.373766
C       1.209046   -1.991429    0.990729
C       0.356017   -0.753556    1.345413
C      -0.949594   -1.623490    1.244395
C      -1.391802   -0.851291   -0.030686
H       1.096793    1.787016   -0.046244
H      -0.414563    1.878358   -0.974474
H      -0.450455    1.961582    0.802204
H      -0.763084   -2.285362   -1.815385
H      -0.218461   -3.674150    0.319133
H       1.505453   -2.535905    1.891856
H       2.071858   -1.846838    0.336197
H       0.610708   -0.120514    2.196586
H      -1.572525   -1.920704    2.084701
H      -2.378490   -0.479158   -0.303117
