15

C      -0.012150    1.346127   -0.124765
O      -0.041363   -0.062611   -0.199386
C      -1.290794   -0.604869    0.131005
C      -1.176795   -2.112177    0.099816
C      -2.349319   -2.947307   -0.229754
O      -1.309703   -2.739079   -1.177816
C      -0.146479   -2.678014    0.956432
N       0.650950   -3.125256    1.662416
H       1.000066    1.660340   -0.385861
H      -0.722719    1.804550   -0.829423
H      -0.248474    1.702787    0.889501
H      -1.611102   -0.284054    1.137298
H      -2.069757   -0.302543   -0.587292
H      -2.418589   -3.949604    0.186658
H      -3.295356   -2.454518   -0.448776
