21

C       0.239911    1.488231   -0.054761
C       0.112876   -0.020757    0.070296
O       0.150691   -0.577678    1.143217
C      -0.067531   -0.790179   -1.233876
C      -0.016102   -2.307866   -1.068603
C      -0.290367   -3.060313   -2.376912
C      -0.198115   -4.556806   -2.204197
C       0.316418   -5.443716   -3.253955
O       1.120399   -5.108103   -2.121727
H       1.176654    1.740643   -0.565554
H      -0.573052    1.901477   -0.661473
H       0.236101    1.944856    0.935640
H      -1.030153   -0.475828   -1.665645
H       0.688491   -0.441817   -1.951518
H       0.966511   -2.600114   -0.683441
H      -0.739425   -2.607607   -0.302428
H      -1.291948   -2.808032   -2.752658
H       0.426335   -2.752025   -3.148199
H      -0.894621   -4.985397   -1.480040
H      -0.015277   -6.480104   -3.303557
H       0.643566   -5.017428   -4.201948
