17

O      -0.165506    1.376512   -0.099938
C      -0.009004   -0.021060   -0.016519
C       0.100398   -0.614780    1.439648
C      -1.433670   -0.326072    1.558455
C      -1.414358   -0.684552    0.032840
O      -2.411035   -0.321363   -0.854961
C      -1.061561   -2.176545    0.057886
C       0.074578   -2.098286    1.103698
O       0.765044   -2.986064    1.524693
H       0.695167    1.794295   -0.000762
H       0.706531   -0.388756   -0.763859
H       0.834642   -0.269184    2.163802
H      -2.025069   -0.953559    2.228917
H      -1.629087    0.730767    1.733511
H      -2.397004    0.641577   -0.918564
H      -1.888205   -2.808499    0.395114
H      -0.698128   -2.559875   -0.900535
