12

C       0.008622    1.413844    0.050187
N      -0.005369   -0.031146   -0.017834
C      -0.092152   -0.813406   -1.122228
C      -0.005608   -2.122279   -0.694202
C       0.136508   -2.020243    0.703884
N       0.138833   -0.752497    1.111016
H       1.021422    1.788746    0.229341
H      -0.362221    1.819735   -0.892744
H      -0.637602    1.743565    0.865953
H      -0.208975   -0.384567   -2.105148
H      -0.048253   -3.011829   -1.301079
H       0.231383   -2.813731    1.430745
