11

O      -0.285879   -0.001536    0.002543
C      -0.082262    1.180751    0.008522
N       1.168300    1.786289    0.001250
C       2.401079    1.184624   -0.013200
N       3.534402    1.831636   -0.018407
C       4.423402    0.788841   -0.033072
N       3.902315   -0.405785   -0.036645
O       2.510734   -0.139610   -0.023194
H      -0.876312    1.950327    0.020050
H       1.210984    2.795426    0.007510
H       5.495006    0.926407   -0.041164
