17

C      -0.043796    1.577810    0.080694
C       0.048193    0.043681    0.075842
C       0.791535   -0.483322   -1.122304
C       1.857468   -1.188447   -0.750540
C       1.943366   -1.244360    0.734716
O       2.764871   -1.808055    1.409911
N       0.829936   -0.495265    1.191546
C       0.388637   -0.355868    2.500445
N       1.031290   -0.750710    3.520596
H       0.956463    2.018827    0.061491
H      -0.596936    1.922777   -0.798319
H      -0.566924    1.940711    0.969506
H      -0.970057   -0.373472    0.099508
H       0.465840   -0.261449   -2.130655
H       2.590984   -1.681973   -1.371818
H      -0.592574    0.136723    2.530556
H       0.490863   -0.548508    4.360508
