18

N      -0.128258    1.107294   -0.875713
C      -0.056508    0.056821   -0.154990
N      -1.217308   -0.663423    0.087087
C      -1.608503   -1.271510    1.352436
C      -0.711287   -2.429873    1.772500
C       0.675194   -1.978601    2.214235
N       1.523264   -1.475998    1.138582
C       1.338586   -0.454113    0.250048
O       2.303634    0.056897   -0.294520
H       0.824805    1.414867   -1.080702
H      -1.981001   -0.169659   -0.358942
H      -1.656456   -0.534331    2.172350
H      -2.626589   -1.644285    1.207256
H      -1.181926   -2.938331    2.621555
H      -0.627292   -3.151007    0.952746
H       0.575396   -1.232717    3.018239
H       1.211393   -2.829845    2.642947
H       2.513458   -1.637927    1.265318
