18

C      -0.093579    1.496031    0.093507
N      -0.059039    0.052594    0.176840
C      -1.337597   -0.634332    0.000789
C      -1.100110   -2.012393    0.581403
N       0.157122   -2.633001    0.120309
C       0.118870   -1.941414    1.417800
C       0.621585   -0.503288    1.344449
C       2.083629   -0.385045    1.219612
N       3.232737   -0.281811    1.161871
H       0.924206    1.894635    0.142718
H      -0.524095    1.795942   -0.866655
H      -0.690146    1.967229    0.898330
H      -2.164204   -0.154166    0.558432
H      -1.610225   -0.647472   -1.061009
H      -1.946392   -2.635583    0.847326
H       0.117855   -3.636480    0.282855
H       0.248719   -2.491796    2.341870
H       0.338018   -0.002381    2.291576
