23

C       0.067908    1.514595    0.060671
C       0.066871   -0.004638   -0.012828
C       0.640880   -0.550579   -1.326460
C       0.796314   -2.077920   -1.270696
C       1.536317   -2.497130    0.009910
O       2.892678   -2.067906   -0.008876
C       0.809475   -1.903418    1.229329
C       1.451638   -2.257724    2.561558
O       0.827297   -0.478881    1.103494
H       1.087596    1.901560   -0.033685
H      -0.538000    1.938302   -0.745839
H      -0.338736    1.852238    1.017605
H      -0.968458   -0.373878    0.098542
H      -0.003788   -0.256615   -2.162076
H       1.619510   -0.086822   -1.503185
H      -0.192258   -2.556289   -1.281468
H       1.343985   -2.442755   -2.144899
H       1.561576   -3.590068    0.087775
H       2.878893   -1.137710    0.249969
H      -0.237467   -2.251775    1.219835
H       2.509333   -1.984344    2.563297
H       0.947938   -1.730892    3.375921
H       1.377754   -3.334565    2.741777
