21

C      -0.819503    1.216040    0.161719
C      -0.180789   -0.156202    0.013032
C       0.652927   -0.530636   -1.253757
C       1.275821    0.635259   -2.005776
O       2.133776    0.081382   -2.996485
C       1.658692   -1.276954   -0.337124
C       1.051601   -0.554445    0.915089
C       1.844379    0.548162    1.425489
C       2.502810    1.462450    1.849646
H      -0.083806    2.020604    0.081944
H      -1.586937    1.374053   -0.603892
H      -1.302629    1.311880    1.140072
H      -0.946943   -0.924663    0.159088
H       0.129793   -1.159359   -1.980247
H       0.485509    1.250639   -2.465189
H       1.836874    1.278988   -1.312527
H       2.606565    0.803287   -3.420333
H       1.482942   -2.354272   -0.299361
H       2.715378   -1.096083   -0.537088
H       0.793715   -1.219716    1.744905
H       3.087651    2.262286    2.231013
