18

C       0.101790    1.411219   -0.354173
N       0.064690   -0.011187   -0.020548
C      -1.042988   -0.523487    0.893973
C      -0.108589   -1.769617    1.102399
O       0.095888   -2.629649    0.039326
C       0.800858   -0.493949    1.224736
C      -0.316019    0.104866    2.091357
C      -0.491102    1.253724    2.964889
O      -0.558665   -0.101109    3.462440
H       1.076075    1.637544   -0.799204
H      -0.663003    1.609549   -1.111975
H      -0.060491    2.098388    0.486638
H      -2.094299   -0.488646    0.607514
H      -0.262948   -2.344849    2.014244
H       0.223120   -2.041821   -0.722398
H       1.884575   -0.424902    1.321268
H       0.374127    1.825135    3.298049
H      -1.435458    1.796169    2.973456
