16

C      -0.005278    1.481588    0.093841
C       0.011701   -0.005176    0.003948
C      -0.001650   -0.777680   -1.101392
C      -0.035208   -0.362854   -2.450271
C      -0.063800   -0.017575   -3.603618
C       0.025149   -2.232685   -0.700939
O       0.022721   -3.211994   -1.410410
N       0.053618   -2.212310    0.674928
C       0.048606   -0.883202    1.231867
H       0.881285    1.854958    0.621395
H      -0.031947    1.930902   -0.900827
H      -0.878000    1.832639    0.658492
H      -0.088832    0.272528   -4.624717
H       0.075891   -3.060713    1.213665
H       0.943342   -0.677016    1.838817
H      -0.824757   -0.699286    1.875967
