17

C      -0.025594    1.503650    0.105848
C      -0.039315   -0.014636   -0.121489
C      -1.408793   -0.597076    0.004685
C      -2.148491   -1.038501    1.216858
C      -1.966263   -2.006293    0.036754
C      -2.841131   -1.536646   -1.074218
N      -3.652541   -2.078226   -1.860561
O      -2.394201   -0.215658   -1.010679
H       0.985041    1.903720   -0.014350
H      -0.679128    2.006741   -0.612385
H      -0.374253    1.754716    1.112415
H       0.354488   -0.248205   -1.117539
H       0.612634   -0.513684    0.604875
H      -1.539299   -1.285678    2.081436
H      -3.128841   -0.629962    1.440428
H      -1.489363   -2.970854    0.128844
H      -4.025843   -1.400259   -2.527043
