21

C       0.135935    1.497601   -0.283016
C       0.165164    0.006413   -0.062414
O       1.450527   -0.602370    0.136328
C       0.511001   -0.618270    1.219392
C       0.916164    0.138860    2.489790
O       0.675142   -0.749666    3.572633
C       0.711459   -2.075882    3.051126
C      -0.004821   -1.979363    1.694361
C      -1.530049   -2.014111    1.854371
H       0.806516    2.015452    0.407024
H       0.447212    1.738191   -1.304765
H      -0.878910    1.885374   -0.141976
H      -0.482410   -0.563054   -0.733527
H       1.979903    0.409317    2.417629
H       0.334953    1.049792    2.665382
H       1.750791   -2.418061    2.922750
H       0.213653   -2.728658    3.773132
H       0.327218   -2.753557    0.997473
H      -1.859551   -1.267475    2.583750
H      -2.038560   -1.812576    0.906815
H      -1.859112   -2.996338    2.208799
