16

O      -0.092595    1.427076    0.250521
C       0.016803    0.049124   -0.064292
C      -1.380077   -0.537966   -0.013714
C      -1.487395   -2.083204   -0.121085
C      -2.086105   -2.051997    1.299025
O      -2.506070   -2.852618    2.075358
N      -1.957553   -0.645014    1.347371
C      -2.313761    0.333454    2.267842
O      -2.799888    0.109791    3.345289
H       0.790375    1.794523    0.351787
H       0.430083   -0.105603   -1.073671
H       0.660790   -0.482968    0.652373
H      -2.035538    0.008960   -0.698042
H      -2.168952   -2.459753   -0.885044
H      -0.536041   -2.616190   -0.187641
H      -2.084636    1.342080    1.881119
