17

O       0.050971    1.105815   -0.682967
C       0.060331   -0.211639   -0.169675
C      -1.349578   -0.647458    0.184282
O      -2.231113   -0.532499   -0.970646
C      -2.682189   -1.898006   -0.829324
C      -1.710549   -2.144360    0.360550
N      -1.015973   -3.113030   -0.489417
C      -1.807083   -2.873390   -1.622985
N      -1.829130   -3.249928   -2.826569
H      -0.584965    1.106169   -1.409287
H       0.498592   -0.918783   -0.889951
H       0.690383   -0.203501    0.727145
H      -1.742865   -0.030104    1.002301
H      -3.766424   -2.002224   -0.829426
H      -1.985637   -2.501058    1.352159
H      -0.034026   -3.353066   -0.471519
H      -1.041380   -3.859795   -3.054009
