20

C       0.527315    1.482515   -0.101774
C       0.042809    0.065362    0.189297
C       0.427186   -0.983461   -0.899381
C       1.563520   -1.511417    0.002590
O       2.799631   -0.939753   -0.402120
C       0.911701   -0.756076    1.203985
N       1.805926   -0.069267    2.097331
C       1.761525   -0.179599    3.454247
O       0.979802   -0.863221    4.079558
H       1.573755    1.486821   -0.423643
H      -0.066272    1.929847   -0.905926
H       0.433233    2.124967    0.780111
H      -1.018962    0.086865    0.450544
H      -0.347781   -1.733154   -1.073907
H       0.764471   -0.586812   -1.859608
H       1.654814   -2.599618    0.106487
H       3.480981   -1.270527    0.192809
H       0.297634   -1.416992    1.816730
H       2.504399    0.530301    1.686930
H       2.542835    0.439888    3.938877
