18

C      -0.110394    1.534665   -0.049043
C       0.058105    0.034491    0.041471
O       1.089390   -0.478314   -0.849649
C       1.729570   -1.203692    0.218582
C       0.754553   -0.618257    1.269664
N       1.888207    0.106821    1.833652
C       1.996394    1.103390    2.870994
C       2.827218   -0.361143    0.931886
O       3.998098   -0.127375    0.798966
H       0.821696    2.049225    0.197793
H      -0.393153    1.816603   -1.067752
H      -0.900138    1.875208    0.629417
H      -0.889127   -0.479296   -0.173936
H       1.902983   -2.258585    0.004499
H       0.156689   -1.193833    1.976739
H       1.681155    0.702225    3.841163
H       3.048067    1.393667    2.934153
H       1.397364    1.994392    2.651040
