18

C      -0.226737    1.432579    0.270009
C       0.013142   -0.043988   -0.009366
C       1.419610   -0.483715   -0.396408
C       0.885146   -0.827034    0.963556
C      -1.088851   -0.743688   -0.614879
C      -2.028478   -1.308715   -1.115643
C      -3.150588   -1.990095   -1.744557
O      -3.952884   -2.624571   -0.752848
H       0.656321    1.886142    0.730957
H      -0.444953    1.975409   -0.655105
H      -1.074280    1.568322    0.948962
H       1.513382   -1.279033   -1.125930
H       2.170860    0.294965   -0.474987
H       1.268053   -0.284327    1.821237
H       0.612100   -1.856061    1.163032
H      -3.739598   -1.256651   -2.319773
H      -2.765883   -2.725187   -2.470881
H      -4.680751   -3.058384   -1.210015
