16

C       0.102095    1.131713    0.977270
C      -0.105866    0.377321   -0.333755
O       0.859083   -0.645930   -0.525280
C      -1.539684   -0.207180   -0.449550
N      -1.859581   -0.607996   -1.820283
C      -2.095583   -1.848443   -1.763679
O      -2.031431   -2.480108   -0.540412
C      -1.673350   -1.491737    0.366856
O      -1.487045   -1.719132    1.523141
H       1.132086    1.493951    1.031507
H      -0.570832    1.991925    1.048405
H      -0.091105    0.479331    1.835336
H       0.015204    1.053407   -1.185742
H       0.982173   -1.097517    0.318041
H      -2.263273    0.539687   -0.103739
H      -2.360441   -2.498275   -2.588385
