14

N      -0.010274    1.350362   -0.110083
C      -0.112742   -0.022186    0.045404
C      -1.208956   -0.846852    0.094698
C      -0.681132   -2.168256    0.092659
C       0.653681   -2.047405    0.074170
O       1.318041   -3.198125    0.366572
C       0.234129   -4.153717    0.192137
O      -1.020293   -3.481961    0.381897
O       1.084008   -0.788041    0.048957
H       0.641185    1.774302    0.541276
H       0.235147    1.641602   -1.051547
H      -2.231207   -0.506844    0.105788
H       0.287641   -4.536779   -0.838246
H       0.342317   -4.947947    0.931033
