19

C       0.149684    1.483853    0.136501
C      -0.035912    0.042681   -0.351827
C      -1.369523   -0.570950    0.047988
C      -2.609904    0.049025   -0.568690
C      -1.417054   -2.035937    0.399709
N      -1.438382   -1.028884    1.436822
C      -2.482722   -0.857262    2.324683
O      -3.114977   -1.750807    2.834891
H       1.146278    1.853526   -0.121225
H      -0.579331    2.166705   -0.310715
H       0.042308    1.537138    1.224695
H       0.053854    0.000431   -1.444834
H       0.765845   -0.581517    0.056209
H      -2.559920   -0.019004   -1.660498
H      -3.516456   -0.464706   -0.236684
H      -2.706113    1.107520   -0.308201
H      -2.342328   -2.581463    0.230322
H      -0.511288   -2.633341    0.334237
H      -2.632125    0.210074    2.579088
