15

C      -0.209569    1.343883   -0.276783
C       1.206034    1.093921    0.155887
C       0.226898   -0.061590    0.087549
C      -0.263130   -0.703888    1.319684
N      -0.510372   -2.017204    1.369268
N      -0.925364   -2.207265    2.617444
N      -0.974704   -1.138773    3.396897
C      -0.556069   -0.163111    2.590933
H      -0.875429    1.852941    0.411606
H      -0.403064    1.554522   -1.322564
H       1.991235    1.131750   -0.590770
H       1.510047    1.431722    1.140700
H       0.354144   -0.759585   -0.731993
H      -1.188882   -3.119299    2.952426
H      -0.486007    0.851716    2.948489
