20

C       0.407515    1.506010   -0.717145
C       0.032188    0.141529   -0.177649
C       0.619902   -1.119792   -0.847017
C       1.121527   -1.466414    0.566141
C       2.605897   -1.707698    0.787906
C       3.046965   -3.060618    0.239322
N       4.266210   -3.490411    0.675710
O       2.372135   -3.704348   -0.543158
O       0.711541   -0.172721    1.068263
H       1.487418    1.575995   -0.881238
H      -0.102747    1.692687   -1.668671
H       0.115273    2.292299   -0.013590
H      -1.056745    0.080172   -0.035884
H      -0.079122   -1.821630   -1.300025
H       1.423016   -0.906596   -1.556861
H       0.542543   -2.270681    1.038641
H       3.184659   -0.917446    0.292700
H       2.833246   -1.633151    1.858594
H       4.814569   -2.974757    1.340702
H       4.616614   -4.368558    0.330017
