18

O      -0.431884    1.310763   -0.272457
C      -0.098798   -0.035672   -0.039346
C       1.031880   -0.555944   -0.908095
C       2.350362    0.210936   -0.693106
C       3.430553   -0.250409   -1.642120
O       4.512040   -0.663810   -1.312138
C      -0.286227   -0.565520    1.360489
C      -1.269367   -0.921079    0.259618
H       0.175578    1.861462    0.232602
H       1.186346   -1.620658   -0.700139
H       0.730834   -0.473672   -1.960368
H       2.168338    1.275808   -0.898710
H       2.716707    0.109582    0.332746
H       3.146965   -0.187642   -2.719721
H       0.387515   -1.334680    1.723215
H      -0.623624    0.136788    2.114853
H      -2.240382   -0.441305    0.287379
H      -1.267131   -1.933482   -0.129251
