19

C       0.407165    1.318422   -0.227341
C      -0.039551   -0.139132   -0.030279
C       0.327207   -1.049928   -1.260313
C       1.516383   -1.881666   -0.758389
O       2.740948   -1.153479   -0.817875
C       1.172514   -2.041773    0.724454
N       0.639125   -0.739223    1.144506
C      -1.501934   -0.172159    0.186723
N      -2.649009   -0.194911    0.326942
H       1.473516    1.326900   -0.469157
H      -0.147483    1.793376   -1.040401
H       0.237862    1.897514    0.684968
H      -0.507907   -1.705732   -1.520011
H       0.570301   -0.454704   -2.144579
H       1.604470   -2.842337   -1.282903
H       2.946761   -0.986117   -1.742905
H       0.408411   -2.818749    0.848069
H       2.041347   -2.314606    1.326643
H       1.413943   -0.137443    1.398391
