24

C       0.240834    1.472827    0.074710
C       0.053422   -0.045888    0.106345
C      -1.421573   -0.450747   -0.009968
N      -1.627482   -1.898355    0.045555
C      -1.892628   -2.492463    1.350369
C      -3.362168   -2.407182    1.780614
C      -1.537673   -2.600872   -1.129188
C      -1.758019   -4.107489   -1.071179
O      -1.285838   -2.044605   -2.187696
H       1.298202    1.743228    0.150582
H      -0.144794    1.898555   -0.857976
H      -0.286443    1.959195    0.903660
H       0.597681   -0.510637   -0.722061
H       0.473967   -0.453865    1.034680
H      -2.004763    0.007599    0.797157
H      -1.822717   -0.092797   -0.960815
H      -1.566496   -3.534391    1.347557
H      -1.262344   -1.981359    2.088075
H      -3.493166   -2.835274    2.779776
H      -3.707010   -1.369202    1.810810
H      -4.007093   -2.953800    1.085909
H      -2.691400   -4.379417   -0.570062
H      -1.781892   -4.468964   -2.098705
H      -0.938665   -4.608881   -0.544784
