15

C       0.043964    1.343095   -0.171858
C       1.481061    1.874248    0.164144
C       2.141433    0.596709    0.608106
C       1.165600   -0.345232    0.709449
N       1.662686   -1.515819    1.177759
C       3.030594   -1.321188    1.389016
C       3.347672   -0.023906    1.049871
O      -0.103529   -0.000709    0.392407
H      -0.757570    1.955644    0.245178
H      -0.100014    1.256361   -1.253852
H       1.928012    2.342431   -0.719449
H       1.451862    2.638904    0.951563
H       1.154909   -2.369721    1.324252
H       3.644831   -2.130695    1.746287
H       4.334266    0.409576    1.112120
