22

C       1.030837    1.155407    0.663476
C      -0.045179    0.356730   -0.069675
N       0.555504   -0.403423   -1.164213
C       1.047927   -1.772577   -0.980716
C       0.857102   -2.558554    0.315448
C      -0.499502   -3.268358    0.352618
O      -1.552420   -2.382564    0.012798
C      -1.509958   -2.000076   -1.351829
C      -0.159923   -1.482989   -1.821591
H       1.757659    0.491643    1.143733
H       1.576255    1.795783   -0.035556
H       0.583945    1.783705    1.440361
H      -0.612737   -0.264219    0.635940
H      -0.765190    1.047457   -0.525525
H       1.996848   -1.948597   -1.483224
H       1.656076   -3.302305    0.403240
H       0.949015   -1.899566    1.186264
H      -0.495168   -4.129023   -0.337224
H      -0.725624   -3.641862    1.355605
H      -1.781611   -2.858007   -1.991497
H      -2.288485   -1.238904   -1.473679
H      -0.067974   -1.485410   -2.908247
