21

C      -0.143205    1.637365    0.150867
C      -0.103418    0.114682    0.297263
C      -1.413782   -0.551543   -0.158661
O      -1.726665   -0.244237   -1.507805
C      -1.408074   -2.062918    0.068971
C      -1.655632   -2.614018    1.466499
C      -2.717041   -2.767564    0.434743
C      -0.527314   -2.866303   -0.805656
O       0.101343   -2.432921   -1.747453
H       0.813204    2.086784    0.434090
H      -0.364930    1.916228   -0.882212
H      -0.920420    2.076197    0.787225
H       0.722967   -0.298564   -0.292258
H       0.088072   -0.159856    1.342303
H      -2.237871   -0.127945    0.431808
H      -1.042632   -0.673915   -2.040130
H      -1.098125   -3.492945    1.773888
H      -1.791791   -1.875639    2.249151
H      -3.592468   -2.129759    0.474738
H      -2.898249   -3.753794    0.020802
H      -0.487235   -3.951213   -0.553840
