15

C      -0.018047    1.484937    0.072962
C      -0.002818   -0.000696   -0.055959
C      -0.044859   -0.802563   -1.170839
C      -0.002657   -2.162161   -0.710638
C       0.063112   -2.098318    0.662619
N       0.064958   -0.813699    1.092611
O       0.109545   -3.281931    1.261736
N       0.072295   -4.250230    0.201564
C       0.007447   -3.566728   -0.921418
H       0.887223    1.867081    0.561385
H      -0.076448    1.939407   -0.918363
H      -0.878552    1.840901    0.653385
H      -0.099405   -0.442349   -2.186189
H       0.106191   -0.488663    2.042666
H      -0.029009   -4.132773   -1.842357
