15

C      -0.042569    1.446151   -0.011690
N      -0.003266   -0.011129   -0.010425
N      -0.036949   -0.620221   -1.186581
C      -0.000903   -1.918994   -1.190634
C       0.068698   -2.653213    0.046056
N       0.134165   -4.008318    0.010415
N       0.095832   -2.052501    1.209277
C       0.066954   -0.680337    1.249508
O       0.091507   -0.007101    2.258370
H       0.851703    1.844823    0.473269
H      -0.095624    1.771737   -1.049485
H      -0.912263    1.797501    0.548711
H      -0.023711   -2.406182   -2.158933
H      -0.077862   -4.511421   -0.832819
H       0.059959   -4.496657    0.888301
