17

C       0.062824    1.500154   -0.376730
C      -0.086848    0.066239    0.061862
O       1.057470   -0.792267   -0.041243
C       0.542211   -0.509595    1.263967
C       1.422371    0.259102    2.210685
C       0.841764    0.857127    3.430935
O       1.570627   -0.355990    3.507600
C       2.725795    0.842620    1.700492
O       3.414172    1.569233    2.370108
H       0.962193    1.969573    0.028961
H       0.113995    1.558746   -1.468570
H      -0.804267    2.084131   -0.050434
H      -1.008923   -0.413667   -0.271651
H       0.050125   -1.351486    1.752744
H       1.335676    1.725666    3.860694
H      -0.232905    0.773266    3.590059
H       3.007513    0.540017    0.675677
