20

O      -0.472717    1.454208   -0.232736
C      -0.253004    0.071509   -0.202754
C      -0.356425   -0.602155    1.146873
O      -0.727187    0.242540    2.212419
C      -1.414585   -0.858548    0.100875
C      -2.825890   -0.313150    0.232989
C      -3.505803   -0.159606   -1.113622
C      -4.361602    1.020847   -1.390024
N      -3.053333    0.880764   -2.048534
H      -0.648037    1.713979    0.683373
H       0.506400   -0.233032   -0.915777
H       0.321388   -1.407997    1.419766
H       0.078929    0.511839    2.666394
H      -1.352020   -1.838738   -0.366082
H      -3.417400   -0.980004    0.873130
H      -2.802028    0.655665    0.739141
H      -3.755807   -1.098992   -1.606493
H      -5.221327    0.936977   -2.049794
H      -4.475619    1.757015   -0.597000
H      -2.355108    1.461445   -1.586028
