21

C       0.376555    1.436990    0.053354
C       0.129511   -0.073148    0.083366
C      -1.363666   -0.417102    0.013170
N      -1.633538   -1.852388    0.080801
C      -1.822687   -2.416330    1.402721
C      -1.650185   -2.559415   -1.094596
C      -1.957539   -4.050492   -1.026194
O      -1.432098   -2.014225   -2.166086
H       1.445891    1.664204    0.095077
H      -0.022799    1.884072   -0.863399
H      -0.102835    1.937982    0.902302
H       0.627521   -0.553559   -0.765216
H       0.565120   -0.502508    0.994802
H      -1.903602    0.064790    0.837947
H      -1.777752   -0.047465   -0.927477
H      -1.930610   -3.498132    1.355661
H      -0.964381   -2.194337    2.049692
H      -2.719439   -2.003236    1.884328
H      -2.920367   -4.253232   -0.547136
H      -1.984351   -4.418311   -2.051230
H      -1.187141   -4.599615   -0.475066
