18

N       0.002469    1.467557    0.007600
C      -0.044777    0.037270   -0.010014
C      -1.349926   -0.710813    0.022816
C      -2.648412    0.032347   -0.298154
C      -2.684393    0.068428   -1.839983
N      -1.254603    0.141866   -2.199979
C      -0.531893   -0.715425   -1.270095
C       0.134824   -1.877359   -1.770159
N       0.699696   -2.800329   -2.185394
H       0.968912    1.772537   -0.052701
H      -0.462175    1.811787   -0.832534
H       0.766876   -0.435711    0.533395
H      -1.395256   -1.613565    0.619600
H      -3.516628   -0.484121    0.115319
H      -2.625574    1.043443    0.120782
H      -3.169576   -0.841450   -2.227147
H      -3.219090    0.936335   -2.237479
H      -1.062971   -0.093141   -3.165322
