16

C      -0.003901    1.486793   -0.011849
C      -0.002723    0.031509   -0.001535
C      -0.002463   -1.172340    0.010221
C       0.009139   -2.645739   -0.006464
C      -1.423298   -3.206154    0.052051
O       0.555613   -3.135034   -1.236484
C       0.801686   -3.142099    1.136011
C       1.458773   -3.563265    2.049657
H       0.727288    1.889973    0.697145
H       0.245682    1.874676   -1.005490
H      -0.987697    1.883616    0.261230
H      -1.982957   -2.838089   -0.810425
H      -1.382211   -4.297056    0.019253
H      -1.919014   -2.888027    0.970680
H       1.448053   -2.779187   -1.315207
H       2.039600   -3.931468    2.859069
