14

O      -0.115488    1.474437    0.045715
C      -0.011280    0.081495    0.002660
C       0.761396   -0.380224   -1.257461
C       0.081577    0.112124   -2.526247
O      -0.194622   -0.604170   -3.451598
C       0.683425   -0.420051    1.260524
O       1.127538    0.341007    2.086657
C       0.788585   -1.874616    1.423764
N       0.850503   -3.023689    1.536456
H       0.337877    1.766309    0.851980
H      -1.014816   -0.376142   -0.015107
H       1.766834    0.059741   -1.217725
H       0.845903   -1.468923   -1.305922
H      -0.138668    1.198861   -2.538642
