18

O      -0.086248    1.387762    0.008815
C      -0.012597    0.002129    0.022624
C       0.321318   -0.821069    1.312030
C      -0.431660   -1.935609    0.520311
C      -1.340412   -0.791867   -0.035846
C       0.531566   -2.188186   -0.673086
C       0.845090   -0.707742   -1.046919
C      -0.987173   -3.091853    1.182148
N      -1.427995   -4.021915    1.709673
H       0.804315    1.745211   -0.075198
H       1.367518   -1.007705    1.569131
H      -0.240532   -0.472207    2.179296
H      -2.065338   -0.441910    0.700073
H      -1.813261   -0.947898   -1.008442
H       1.414502   -2.752093   -0.364037
H       0.039096   -2.737876   -1.478161
H       0.525344   -0.443883   -2.058311
H       1.907979   -0.463895   -0.947843
