16

C       0.009242    1.476934   -0.178377
N       0.169364    0.041628    0.005456
C       0.629015   -0.756734   -0.995403
C       0.639138   -2.131607   -1.155829
C       1.314113   -2.357919   -2.375608
C       1.672257   -1.135975   -2.891190
O       1.235855   -0.145460   -2.022471
C       2.365545   -0.765641   -4.093594
O       2.629386    0.364589   -4.457024
H       0.946061    1.906283   -0.537954
H      -0.781656    1.731350   -0.896829
H      -0.230743    1.925077    0.787585
H      -0.474366   -0.406796    0.636738
H       0.220829   -2.859400   -0.479878
H       1.520512   -3.312564   -2.836426
H       2.654402   -1.657869   -4.694561
