13

C       0.028023    1.514154   -0.074261
C      -0.002075    0.002982    0.012686
O       0.663424   -0.513997   -1.165432
C       0.730971   -1.823858   -1.258615
N       0.269013   -2.707525   -0.414381
O       0.606072   -3.899761   -0.991700
N       1.269444   -3.655143   -2.182685
N       1.347804   -2.411970   -2.348792
H       1.057019    1.881638   -0.104210
H      -0.492699    1.862835   -0.969821
H      -0.467150    1.940195    0.803040
H       0.521884   -0.371542    0.898814
H      -1.024165   -0.390589    0.033822
