18

O      -0.242366    1.428789    0.104672
C      -0.078020    0.060138    0.041418
C      -0.186851   -0.740209   -1.231254
C      -1.154624   -0.990826   -0.082722
N      -0.573535   -1.765357    1.012432
C      -0.259427   -3.168074    0.759230
C       0.395790   -3.790423    1.906070
C       0.957071   -4.296182    2.840253
C       0.554130   -0.792609    1.149257
H       0.491997    1.843981   -0.360506
H      -0.628826   -0.193529   -2.058795
H       0.571274   -1.466208   -1.514460
H      -2.229063   -0.898067   -0.195509
H      -1.204840   -3.685595    0.551122
H       0.376197   -3.316948   -0.134310
H       1.442347   -4.747649    3.669743
H       1.552369   -1.198991    0.942065
H       0.552198   -0.311189    2.131237
