18

C       0.045144    1.511874   -0.058240
C      -0.014806    0.009980    0.031487
O       0.957689   -0.642336   -0.880677
C       1.210650   -1.605412    0.115523
C      -0.064398   -2.508032    0.538241
N       0.050915   -1.860385    1.892843
C       0.725381   -0.734582    1.272421
C      -1.304233   -1.984505   -0.127769
C      -1.325476   -0.653235   -0.278247
H       1.056014    1.872169    0.150395
H      -0.239911    1.852418   -1.059357
H      -0.642937    1.961899    0.665759
H       2.166808   -2.119026    0.016064
H       0.040229   -3.593692    0.547631
H      -0.851851   -1.654713    2.320260
H       1.329945   -0.081536    1.905900
H      -2.121666   -2.642348   -0.403177
H      -2.168337   -0.087509   -0.661279
