19

C      -0.127334    1.501377    0.013145
C       0.082534    0.016161    0.036046
C       1.023092   -0.778335   -0.903096
C       0.695280   -1.926490    0.120040
C       1.447764   -3.225945    0.230965
C       0.685462   -0.793459    1.210294
C      -0.811531   -2.000774   -0.121228
O      -1.548878   -2.932464   -0.245729
O      -1.195903   -0.686136   -0.173222
H       0.824079    2.017976    0.168908
H      -0.541584    1.817777   -0.948648
H      -0.821422    1.805229    0.802242
H       0.708111   -0.901722   -1.942239
H       2.065239   -0.455540   -0.844046
H       2.514387   -3.052898    0.402100
H       1.059185   -3.828321    1.057923
H       1.336669   -3.816306   -0.683823
H       1.693413   -0.472186    1.483373
H       0.062691   -0.930641    2.097758
