21

C      -0.095085    1.536643   -0.261046
C      -0.055989    0.114500    0.313535
C      -1.394273   -0.577087    0.156302
C      -1.815833   -1.219236   -1.116648
O      -0.986648   -1.294840   -2.217712
C      -1.555716   -2.120333    0.118626
C      -0.391878   -3.024467    0.065854
C      -0.468399   -4.288281    0.896991
O       0.588536   -2.797267   -0.636445
H       0.864279    2.042796   -0.116840
H      -0.309270    1.509332   -1.333420
H      -0.868734    2.143497    0.222618
H       0.727916   -0.462132   -0.181708
H       0.208772    0.145890    1.377663
H      -2.199728   -0.109697    0.719454
H      -2.856635   -1.133901   -1.416110
H      -0.165623   -1.736898   -1.930045
H      -2.420431   -2.513159    0.642454
H      -1.333789   -4.887509    0.591514
H       0.444202   -4.871818    0.772084
H      -0.611130   -4.039894    1.954578
