19

C      -0.218738    1.485344    0.010041
C       0.064119   -0.029288    0.013242
C       0.784544   -0.524126   -1.202985
C       2.129206   -0.770037   -1.391378
C       2.316427   -1.191593   -2.734793
C       1.078619   -1.193294   -3.330071
N       0.147873   -0.787484   -2.401267
C      -1.272424   -0.679694   -2.657797
H       0.714412    2.049212   -0.079041
H      -0.859958    1.775458   -0.828570
H      -0.719415    1.791602    0.934549
H       0.679588   -0.273309    0.885480
H      -0.879764   -0.573065    0.151779
H       2.891307   -0.660290   -0.633814
H       3.246493   -1.468069   -3.207131
H       0.770480   -1.452605   -4.330868
H      -1.851392   -1.258377   -1.930875
H      -1.616025    0.360019   -2.623678
H      -1.481647   -1.077507   -3.652332
