15

O      -0.053711    0.174881   -0.644449
C       0.014430    1.227373   -0.065887
C       1.355053    1.962746    0.130571
O       2.450933    1.097158    0.111692
C       2.935865    1.016743   -1.235173
C       2.130702    2.089762   -1.996689
O       1.505371    2.853823   -0.957197
C       1.431468    2.785039    1.421382
O       0.586827    2.765590    2.273569
H      -0.880650    1.775375    0.287272
H       4.010047    1.223642   -1.221598
H       2.760320    0.013900   -1.632716
H       2.750628    2.773664   -2.579225
H       1.374196    1.637685   -2.647059
H       2.358574    3.390965    1.490580
