21

C      -0.144552    1.358967    0.061982
O      -0.144375   -0.059247   -0.139259
C       0.713109   -0.508659   -1.079866
O       1.421833    0.218264   -1.731804
C       0.672350   -2.018216   -1.170851
C       1.235309   -2.552467   -2.488214
C       1.479861   -4.066167   -2.451547
C       1.989772   -4.600759   -3.789316
O       2.358589   -4.421970   -1.383480
H       0.843707    1.705871    0.374920
H      -0.421656    1.879949   -0.858072
H      -0.880232    1.548153    0.843923
H       1.268510   -2.415972   -0.340026
H      -0.353265   -2.357113   -0.993981
H       0.556662   -2.312132   -3.315278
H       2.177360   -2.035115   -2.708229
H       0.539461   -4.574261   -2.200966
H       2.927434   -4.105798   -4.072392
H       2.176066   -5.675967   -3.722926
H       1.266028   -4.420642   -4.590699
H       3.227383   -4.058920   -1.591157
