16

C      -0.651063    1.323751   -0.175116
C       0.135148    0.043629    0.059948
C       1.398946   -0.202845   -0.836599
C       2.171433   -0.480639    0.434826
C       1.041950   -0.026043    1.335160
N       3.313370   -1.002261    0.596836
O       3.619379   -1.122070    1.968349
H       0.006327    2.200319   -0.139415
H      -1.141869    1.315041   -1.154535
H      -1.427183    1.458228    0.586238
H      -0.533302   -0.821404    0.020742
H       1.347893   -1.014759   -1.566419
H       1.735229    0.704435   -1.351905
H       1.228091    0.953100    1.791578
H       0.753725   -0.721510    2.127551
H       4.486117   -1.541083    1.944259
