18

N      -0.059427    1.344209   -0.226196
C       0.010772    0.106147    0.029002
O       1.229000   -0.511130    0.211439
C       1.354382   -1.577349    1.152661
O       0.770336   -2.781511    0.777817
C      -0.636414   -2.779428    0.544262
C      -0.995954   -2.082464   -0.793881
C      -1.220137   -0.760273    0.010003
C      -1.428965   -1.662405    1.269956
H       0.875950    1.756736   -0.194105
H       2.426127   -1.770606    1.215531
H       0.983777   -1.229973    2.126195
H      -0.954497   -3.813445    0.688097
H      -0.222750   -2.089457   -1.563214
H      -1.936635   -2.455077   -1.206184
H      -2.055983   -0.125898   -0.278612
H      -2.480508   -1.950181    1.340628
H      -1.105810   -1.313551    2.252102
