20

C       0.186333    1.667055   -0.124868
C       1.684335    1.345915   -0.131249
N       1.972065    0.679816    1.164248
C       1.421550   -0.106141    0.030834
C      -0.107272    0.136814    0.054915
C      -0.904237   -0.373990    1.252733
C      -1.429214   -1.722298    0.740694
C      -1.693398   -1.401687   -0.734618
O      -0.739492   -0.402896   -1.103855
H      -0.157510    2.340667    0.664668
H      -0.185217    1.994164   -1.097769
H       2.469753    1.854863   -0.675645
H       2.974942    0.496018    1.192770
H       1.939694   -0.967789   -0.373047
H      -0.287046   -0.435899    2.149900
H      -1.738169    0.306911    1.460392
H      -0.657175   -2.493952    0.832980
H      -2.321668   -2.075330    1.262953
H      -1.572900   -2.265455   -1.397420
H      -2.709843   -1.005318   -0.877145
