15

C      -0.028544    1.392564    0.034633
O       0.013721   -0.038961   -0.021121
C       0.618149   -0.588323   -1.078137
N       1.136341    0.173069   -2.000143
C       1.760815   -0.391354   -3.092084
O       2.273375    0.221662   -4.002311
N       1.785489   -1.812294   -3.117006
C       1.242651   -2.591277   -2.151325
C       0.632314   -2.020465   -1.084383
H       0.981251    1.809161    0.047502
H      -0.560805    1.797779   -0.829018
H      -0.555883    1.628132    0.959353
H       2.244846   -2.214442   -3.920388
H       1.327208   -3.663410   -2.286202
H       0.183718   -2.592823   -0.287242
