15

N      -0.107982    0.781822    1.121266
C      -0.039849   -0.090380    0.195042
N      -1.197204   -0.375066   -0.517835
C      -1.454651   -1.342238   -1.473026
C      -0.774618   -2.486310   -1.596417
C       0.294299   -2.823797   -0.612327
O       1.433242   -1.926529   -0.682132
C       1.322833   -0.674299   -0.221832
O       2.301187    0.013249   -0.102038
H       0.830151    0.973205    1.471332
H      -1.940722    0.269123   -0.286134
H      -2.277608   -1.090808   -2.134252
H      -0.991424   -3.159234   -2.414981
H      -0.093732   -2.801796    0.414876
H       0.723162   -3.808924   -0.793026
