19

C      -0.024788    1.591250    0.240745
C      -0.037947    0.068781    0.014409
C       0.870602   -0.654560    1.024652
C      -1.448277   -0.487855    0.030177
N      -1.899897   -1.058469   -1.092455
C      -3.142907   -1.545367   -1.068406
C      -3.944816   -1.470686    0.064345
N      -3.509699   -0.904385    1.193421
C      -2.270104   -0.420304    1.165180
H       0.995555    1.978897    0.156941
H      -0.646035    2.107857   -0.496883
H      -0.397234    1.852867    1.237225
H       0.339547   -0.132464   -0.993374
H       0.537021   -0.490152    2.055098
H       0.885464   -1.733480    0.843998
H       1.897230   -0.282690    0.946289
H      -3.507420   -2.008619   -1.982185
H      -4.954630   -1.872283    0.066603
H      -1.910835    0.041791    2.081525
