15

O      -0.019231    0.533734    0.226685
C       0.467871    1.360137   -0.493813
C       1.966805    1.628283   -0.543216
O       2.289516    2.778527   -1.331380
C       1.914703    3.955061   -0.794376
O       1.313557    4.055966    0.243395
C       2.292968    5.138856   -1.680271
C       3.556528    5.017476   -2.391116
C       4.602522    4.945174   -2.975653
H      -0.134215    1.965842   -1.206813
H       2.347819    1.728493    0.476142
H       2.465518    0.790123   -1.037490
H       1.469308    5.266600   -2.396652
H       2.279887    6.022780   -1.036324
H       5.528034    4.871818   -3.491220
