17

O      -0.462239    1.262704    0.073776
C      -0.056349   -0.110033    0.020888
C       0.752589   -0.380816   -1.170061
C       1.466819   -0.579139   -2.117173
C       0.690933   -0.564190    1.284656
O       1.045164   -1.914330    1.234183
C       1.593025    0.405158    2.030982
C       0.272353   -0.053907    2.629296
O      -0.806241    0.801582    2.818217
H       0.292117    1.803472   -0.186011
H      -0.987846   -0.685138   -0.036135
H       2.071764   -0.758041   -2.972370
H       1.715298   -2.015267    0.545649
H       2.513581    0.008559    2.445095
H       1.649702    1.432765    1.685127
H       0.337381   -0.778672    3.434368
H      -0.929691    1.297192    1.996293
