16

C       0.089385    1.447776   -0.019062
C      -0.066140   -0.030443   -0.009133
C      -1.149086   -0.851982    0.069043
C      -0.633860   -2.190418    0.030089
O      -1.328306   -3.364652    0.081274
C       0.720986   -2.101231   -0.068638
C       1.800950   -3.114499   -0.148389
O       1.070469   -0.770213   -0.092450
H       0.701591    1.793940    0.821777
H       0.573665    1.795573   -0.938941
H      -0.890148    1.925859    0.052505
H      -2.182484   -0.547413    0.144791
H      -2.266493   -3.164579    0.135256
H       2.381915   -3.024683   -1.074402
H       2.504833   -3.033448    0.688967
H       1.355230   -4.111708   -0.122123
