17

O      -0.021556    1.333177    0.029303
C       0.048603   -0.066338   -0.015947
C       1.133266   -0.663457   -0.833761
C       1.035651   -1.876908   -1.377779
C      -0.173693   -2.758835   -1.182159
C      -1.079834   -2.216838   -0.086678
O      -0.355491   -2.158955    1.189581
C      -0.530077   -0.752996    1.229451
C      -1.319863   -0.698384   -0.046452
H       0.699966    1.648664    0.584839
H       2.018770   -0.051649   -0.984955
H       1.845669   -2.269422   -1.985910
H      -0.736754   -2.872855   -2.120915
H       0.141721   -3.770390   -0.895794
H      -1.993018   -2.808548    0.030840
H      -0.640734   -0.256338    2.187252
H      -2.215092   -0.160530   -0.325391
