19

C      -0.033615    1.594464    0.024702
C       0.071180    0.076443   -0.010624
C       0.846412   -0.487012   -1.253594
C       1.392512   -1.847972   -0.748041
C       1.548936   -1.625814    0.748504
C       2.193864   -0.365834    1.201269
N       0.727018   -0.483496    1.183605
C       0.017691   -0.585251   -2.445723
N      -0.658930   -0.657205   -3.380729
H       0.957777    2.059281    0.047614
H      -0.564039    1.963128   -0.858236
H      -0.580001    1.915621    0.915061
H      -0.936979   -0.353496   -0.026301
H       1.679526    0.182813   -1.492051
H       0.659797   -2.639739   -0.931092
H       2.321195   -2.133117   -1.249350
H       1.551576   -2.500100    1.392815
H       2.624332   -0.306748    2.196090
H       2.692495    0.260745    0.465826
