16

C       0.029877    1.550887    0.069927
C       0.018045    0.022523    0.031860
N       0.770173   -0.491807    1.171130
C      -1.452387   -0.518208   -0.063542
N      -2.234135   -0.130190   -1.238035
C      -1.424234   -1.988976    0.018801
N      -1.344020   -3.140553    0.076672
H       1.060704    1.907961    0.119414
H      -0.443308    1.987269   -0.813711
H      -0.498367    1.922999    0.957075
H       0.535493   -0.314257   -0.877007
H       0.329581   -0.211824    2.043820
H       0.788030   -1.507555    1.162173
H      -1.992801   -0.159293    0.823649
H      -2.372672    0.874191   -1.241936
H      -1.734509   -0.371438   -2.089294
