17

C      -0.049899    1.378860    0.130132
O       0.348139    0.028214   -0.030810
C       0.707824   -0.617191    1.168142
C      -0.459308   -0.741686    2.079508
N      -1.373709   -0.827840    2.780795
C       1.272577   -1.978658    0.836040
C       2.725674   -2.097644    0.462945
C       2.242269   -2.632936    1.786043
H       0.750738    1.980437    0.586141
H      -0.260219    1.763652   -0.869356
H      -0.953465    1.467122    0.747934
H       1.471193   -0.029246    1.707079
H       0.568083   -2.621651    0.319429
H       2.989284   -2.801170   -0.318087
H       3.325125   -1.193468    0.466521
H       2.518040   -2.092379    2.685568
H       2.169252   -3.705482    1.921435
