19

C      -0.226670    1.587577   -0.186432
C      -0.100890    0.077276   -0.043232
C       1.029101   -0.649214   -0.943837
C       1.888616   -0.634949    0.341548
O       2.512188   -1.542569    1.382586
C       1.787714   -0.583522    2.284354
C       2.543862    0.714840    2.002667
C       2.626027    0.673148    0.673067
C       0.649811   -0.616194    1.179370
H       0.723237    2.110332   -0.065686
H      -0.629891    1.838826   -1.173802
H      -0.918968    1.981889    0.564808
H      -1.088738   -0.369721   -0.183262
H       0.702279   -1.643683   -1.251762
H       1.411915   -0.099007   -1.809075
H       1.671420   -0.959045    3.301243
H       2.927648    1.418825    2.725920
H       3.090922    1.342930   -0.036101
H       0.241084   -1.629695    1.224044
