16

N      -0.425273    1.179949    0.265273
C      -0.467824   -0.062021    0.472751
O      -0.750704   -0.901553   -0.550411
C      -0.856511   -2.281854   -0.264616
C      -2.344071   -2.711075   -0.114343
C      -2.428684   -4.172689   -0.070601
C      -2.450936   -5.372904   -0.047559
C      -2.967354   -2.090319    1.057269
C      -3.457552   -1.568452    2.021326
H      -0.181545    1.666592    1.125217
H      -0.281938   -0.581098    1.421446
H      -0.424084   -2.819195   -1.111605
H      -0.303350   -2.549828    0.642749
H      -2.860416   -2.350913   -1.014963
H      -2.490535   -6.434127   -0.024639
H      -3.906820   -1.109830    2.867580
