23

C      -0.068676    1.540507   -0.021143
C      -0.007998    0.006625   -0.011204
C      -1.427285   -0.573034   -0.089916
C       0.931255   -0.560754   -1.129513
C       1.984176   -1.265289   -0.277804
C       1.281055   -1.969552    0.929558
C       2.521130   -1.678216    1.805137
C       2.296407   -0.389994    0.980950
C       0.756158   -0.524465    1.214585
H       0.931398    1.982535    0.034477
H      -0.545139    1.909505   -0.936496
H      -0.648340    1.918699    0.829002
H      -1.933671   -0.250647   -1.006805
H      -1.415065   -1.667771   -0.084260
H      -2.037181   -0.241818    0.758676
H       0.409144   -1.252905   -1.799193
H       1.363230    0.231340   -1.750907
H       2.808938   -1.779204   -0.777187
H       0.689938   -2.887186    0.895371
H       2.357945   -1.608446    2.884784
H       3.425716   -2.252457    1.582816
H       2.885876    0.528980    1.006514
H       0.351794   -0.296758    2.204930
