19

C      -0.127173    1.534152    0.019508
C       0.076475    0.021068   -0.057708
C       0.999104   -0.544747   -1.161462
C       1.167760   -2.022783   -0.700776
C       1.949727   -1.367961    0.488621
C       2.416974   -0.299619   -0.580613
O       3.411381   -0.740610   -1.472480
C       0.846665   -0.566775    1.153260
O       0.634257   -0.376728    2.322039
H       0.821410    2.079401    0.002859
H      -0.733340    1.890979   -0.818696
H      -0.640672    1.791022    0.950333
H      -0.905520   -0.466711   -0.111078
H       0.775581   -0.284481   -2.195888
H       0.265538   -2.592836   -0.463956
H       1.830361   -2.591945   -1.349390
H       2.643780   -1.904161    1.133779
H       2.649305    0.703314   -0.200689
H       4.255486   -0.732601   -1.010068
