21

C       0.514720    1.558162   -0.390306
C       0.048964    0.149103   -0.040049
C       0.463232   -1.010599   -1.008612
C       1.174713   -1.718383    0.165893
O       0.901287   -3.068583    0.416628
C       2.640512   -1.238126    0.414559
C       2.117384   -0.377679    1.606705
O       2.511161    0.970833    1.721201
C       0.661205   -0.632896    1.174788
H       1.592060    1.606992   -0.561201
H       0.006098    1.899794   -1.299502
H       0.285124    2.263726    0.413687
H      -1.038536    0.166589    0.078153
H      -0.391895   -1.585503   -1.374081
H       1.095366   -0.731348   -1.858153
H       1.313675   -3.591768   -0.280194
H       3.338792   -2.034651    0.684065
H       3.059941   -0.644034   -0.402160
H       2.297836   -0.912638    2.550373
H       3.424471    0.991895    2.024015
H      -0.046415   -0.862413    1.971946
