16

C      -0.222901    0.667852   -0.673927
O       0.080966    0.922936    0.688964
C       0.801250   -0.034099    1.303414
C       1.326492   -1.244381    0.890906
C       1.992523   -1.796225    2.017520
C       1.859666   -0.920187    3.078717
N       1.117717    0.163288    2.611242
C       2.323167   -0.982330    4.403483
C       2.713739   -1.019943    5.544513
H      -0.815222   -0.249280   -0.779593
H      -0.803252    1.521711   -1.025057
H       0.693101    0.574249   -1.270033
H       1.244170   -1.677878   -0.091594
H       2.517846   -2.737273    2.057492
H       0.854147    0.969578    3.150982
H       3.062645   -1.064507    6.545792
