18

C      -0.098446    1.394608    0.523875
C      -0.112119   -0.115854    0.299409
O      -0.192681   -0.836598    1.520896
C      -1.239099   -0.538952   -0.671303
C      -1.263177   -2.041100   -0.801173
O      -0.515536   -2.700125   -1.469184
O      -2.256490   -2.570008   -0.009383
C      -2.345820   -3.936859    0.085213
N      -3.272089   -4.416538    0.787878
H       0.704215    1.659856    1.216663
H       0.057513    1.935648   -0.414990
H      -1.049031    1.733168    0.953631
H       0.841594   -0.430569   -0.138272
H      -1.041607   -0.641924    1.934812
H      -2.205448   -0.180553   -0.304320
H      -1.051637   -0.110475   -1.659521
H      -1.570348   -4.453055   -0.480654
H      -3.218624   -5.434271    0.778439
