22

C      -2.539290   -1.830757    2.689410
C      -1.474105   -1.614395    1.610818
C      -1.684204   -0.289831    0.874425
N      -0.161997   -1.609589    2.267266
C       0.444133   -2.893620    2.593051
C       1.062389   -2.003951    1.569991
C       1.131741   -2.428996    0.110228
C       1.453259   -1.271291   -0.812108
O       0.853701   -1.003335   -1.821008
H      -2.497789   -1.026524    3.430549
H      -3.538788   -1.844192    2.244447
H      -2.386858   -2.780675    3.211137
H      -1.559645   -2.441032    0.883602
H      -1.568352    0.548763    1.568189
H      -0.971203   -0.162070    0.056169
H      -2.690267   -0.248729    0.445699
H       0.875263   -2.993771    3.586201
H      -0.044821   -3.794472    2.219821
H       1.924542   -1.409908    1.876223
H       1.961765   -3.145519    0.011519
H       0.224732   -2.925081   -0.240220
H       2.327773   -0.659396   -0.486245
