17

O       0.030128    1.449598    0.065481
C       0.079933    0.029456    0.046151
C      -1.316174   -0.657743    0.066446
C      -1.208765   -1.817540   -0.927815
C      -1.666257   -3.199100   -0.604505
N      -2.379624   -2.395748   -1.612236
C       0.018911   -1.541903   -1.721166
C       0.731860   -0.548027   -1.191836
H      -0.356953    1.733473   -0.770616
H       0.654858   -0.226632    0.944490
H      -1.623460   -0.968937    1.067848
H      -2.052617    0.072571   -0.291719
H      -1.133520   -4.059951   -1.000504
H      -2.129755   -3.361904    0.365624
H      -3.231830   -2.013778   -1.207510
H       0.271921   -2.125343   -2.599002
H       1.681309   -0.172836   -1.556720
