19

N       0.607240    0.181953   -0.834722
C      -0.078646    0.026241    0.332507
O       0.191587    0.630187    1.353727
C      -1.248097   -0.960818    0.243976
C      -2.421544   -0.444405   -0.645324
C      -3.108995   -1.706035   -1.219949
C      -2.012099   -2.752254   -1.245918
N      -0.737465   -2.270473   -1.833000
C      -0.907803   -2.319185   -0.358340
H       1.401408    0.799689   -0.844093
H       0.394300   -0.400667   -1.632074
H      -1.587210   -1.110330    1.272519
H      -3.107884    0.186594   -0.076916
H      -2.021432    0.162676   -1.459312
H      -3.908980   -2.057779   -0.557844
H      -3.551187   -1.523785   -2.204256
H      -2.262339   -3.800895   -1.370556
H      -0.186107   -3.071628   -2.128948
H      -0.308481   -3.022651    0.209971
