19

O      -0.012294    1.400592   -0.198520
C       0.024430   -0.001540    0.005068
C      -1.364293   -0.567296    0.120630
C      -2.357994   -0.072811    1.193336
C      -3.395601   -1.170146    0.880899
C      -2.619354   -2.453760    1.281024
C      -1.731249   -2.109326    0.074829
C      -2.930746   -1.445503   -0.631439
O      -2.161270   -0.334754   -1.098204
H      -0.585105    1.550467   -0.959883
H       0.561349   -0.513276   -0.808523
H       0.577903   -0.175285    0.934327
H      -1.982361   -0.128196    2.218848
H      -2.679800    0.945723    0.973858
H      -4.434916   -1.010407    1.161414
H      -2.182165   -2.490816    2.283027
H      -3.185258   -3.370890    1.093060
H      -1.033982   -2.788672   -0.413273
H      -3.606710   -1.896922   -1.355838
