17

C      -0.032502    1.532431   -0.026355
C       1.483155    1.542996    0.085845
C       1.397693    0.087257    0.617994
C       2.361804   -0.368077   -0.487627
C       1.557274   -1.062934   -1.588332
C       0.215263   -0.437239   -1.365573
C       1.278352    0.334965   -2.131642
N       2.195018    0.984536   -1.155214
N       0.000322    0.019628    0.005073
H      -0.527557    1.927434    0.865958
H      -0.497942    1.954949   -0.922647
H       2.032878    2.372729    0.533503
H       1.455907   -0.245946    1.655807
H       3.378688   -0.681052   -0.246391
H       1.750000   -2.001142   -2.089021
H      -0.649287   -0.811687   -1.903309
H       1.178630    0.697819   -3.148522
