16

O       0.325328    1.065087    0.767528
C      -0.020603    0.297772   -0.375663
C      -1.376192   -0.250563   -0.326224
C      -2.485865   -0.714482   -0.247558
C      -3.833024   -1.253711   -0.158188
C      -4.573347   -1.546490   -1.510709
C      -4.571963   -3.027951   -1.061382
O      -4.957011   -4.069496   -1.514764
N      -3.938857   -2.697871    0.114391
H       0.174650    0.514822    1.543180
H       0.075757    0.976998   -1.229926
H       0.694388   -0.523538   -0.543247
H      -4.431549   -0.652422    0.535656
H      -5.561782   -1.095442   -1.606372
H      -3.979748   -1.349271   -2.403291
H      -3.554450   -3.264480    0.856227
