25

C       0.410298    1.430594   -0.088109
C      -0.113414   -0.016200    0.026134
C      -1.648185    0.011650    0.144715
C       0.359525   -0.906517   -1.169352
C       1.462980   -1.881009   -0.641835
C       1.182957   -3.337478   -1.054932
C       2.870293   -1.479481   -1.130489
C       1.350364   -1.697535    0.859290
C       0.522909   -0.718689    1.209910
H       1.498397    1.452124   -0.201546
H      -0.032440    1.937583   -0.953267
H       0.156829    2.013605    0.804658
H      -2.101001    0.463260   -0.745484
H      -2.053193   -0.999263    0.255288
H      -1.967804    0.599028    1.013182
H      -0.487340   -1.485630   -1.551192
H       0.724418   -0.299233   -2.003603
H       1.203085   -3.445339   -2.145533
H       1.935453   -4.018368   -0.640755
H       0.200963   -3.665839   -0.699871
H       3.097034   -0.438999   -0.878941
H       3.641617   -2.108759   -0.671959
H       2.951716   -1.592553   -2.217750
H       1.924879   -2.310044    1.548592
H       0.316477   -0.407369    2.230124
