17

C       0.011467    1.563220   -0.159276
C       0.030956    0.048487   -0.000766
C       1.343352   -0.716925   -0.129357
C       0.665405   -0.644176    1.205583
C       1.259076    0.130445    2.355126
O       2.208138   -0.720665    2.980849
C      -1.144278   -0.601065   -0.531477
N      -2.093372   -1.107309   -0.958085
H       0.950516    2.005957    0.178066
H      -0.125317    1.830199   -1.211191
H      -0.807138    2.011593    0.411557
H       1.340350   -1.657936   -0.665585
H       2.228471   -0.108205   -0.282282
H       0.160187   -1.550535    1.524515
H       1.734124    1.055616    1.996904
H       0.461155    0.421109    3.056308
H       2.518163   -0.286453    3.781300
