16

O       0.740990    1.506534    1.722020
C       0.257973    1.763221    0.636057
C       0.964545    1.478828   -0.601164
C       1.577367    1.214218   -1.602239
C      -1.097074    2.349390    0.514157
C      -2.027036    2.660410    1.693535
C      -3.241648    2.168175    0.839231
C      -2.283362    1.873361   -0.323707
N      -1.510291    3.028429   -0.712301
H       2.120055    0.986696   -2.487286
H      -1.827509    2.021517    2.554100
H      -2.031187    3.704441    2.021006
H      -3.703407    1.269581    1.252964
H      -4.027981    2.896607    0.616519
H      -2.326479    1.038606   -1.013978
H      -1.975751    3.912984   -0.514219
