15

N       0.047332    1.337677    0.148216
C       0.007526   -0.020440    0.010256
N      -1.080707   -0.690228   -0.119899
C      -0.751768   -2.125044   -0.068238
C      -1.334341   -2.856633   -1.202415
N      -1.788087   -3.469265   -2.069943
C       0.780719   -2.233590   -0.019791
N       1.424028   -1.613699   -1.185960
C       1.266269   -0.837045    0.072724
H       0.872321    1.810424   -0.185832
H      -0.821513    1.812737   -0.051396
H      -1.178914   -2.558311    0.847054
H       1.257141   -3.062919    0.489391
H       2.383041   -1.950555   -1.247839
H       2.133389   -0.525480    0.644055
