19

C      -0.048464    1.599881   -0.064936
C       1.453790    1.998613   -0.007632
C       2.121579    0.815665    0.739131
C       1.659865    0.842519    2.183095
C       0.551154    0.168224    2.492806
C       0.000511   -0.692611    1.378789
O       1.126967   -1.500475    0.896746
C       1.452519   -0.405837    0.023004
C      -0.015795    0.066293    0.001497
H      -0.599349    2.027343    0.777483
H      -0.526918    1.958257   -0.980088
H       1.864051    2.066481   -1.023121
H       1.626811    2.963150    0.478488
H       3.212051    0.829895    0.658752
H       2.206492    1.445787    2.901982
H       0.107673    0.159708    3.482288
H      -0.857946   -1.308236    1.654272
H       1.982169   -0.730135   -0.876743
H      -0.648519   -0.447351   -0.722850
