19

C       0.095685    1.667857    0.036219
C       0.043131    0.129089    0.037510
C       0.667867   -0.467129   -1.137866
C       1.193019   -0.946963   -2.111033
C       1.812202   -1.471747   -3.298102
O       3.003993   -2.268912   -3.147946
C       1.823407   -2.910838   -3.641998
C       1.251729   -3.975765   -2.740672
O       2.077839   -5.128359   -2.733938
H       1.129846    2.021207    0.010410
H      -0.422034    2.073919   -0.836911
H      -0.382983    2.064463    0.936248
H       0.537694   -0.256131    0.938358
H      -1.000569   -0.204602    0.101955
H       1.868424   -0.770673   -4.131091
H       1.875008   -3.174327   -4.699798
H       1.111531   -3.564480   -1.732159
H       0.274530   -4.297914   -3.116387
H       2.946316   -4.843572   -2.427467
