14

O      -0.192408    0.037657   -0.265306
C      -0.032199    1.223448   -0.160152
N       1.173968    1.886142   -0.012303
C       1.257373    3.335484    0.167282
C       2.744592    3.621646   -0.115028
N       3.346420    2.344028    0.227330
C       2.462923    1.288348    0.076263
O       2.730557    0.118599    0.043162
H      -0.868791    1.953456   -0.182076
H       0.592208    3.864003   -0.518933
H       0.995929    3.616230    1.194622
H       2.903909    3.887742   -1.169515
H       3.126744    4.434038    0.507873
H       4.315039    2.146853    0.031400
