18

O      -0.201409    1.511057   -0.227806
C       0.084858    0.124606   -0.012176
C      -1.185270   -0.770874    0.185029
C      -1.416860   -1.596555   -1.124552
C      -0.095431   -1.457120   -1.828878
C       0.706895   -0.546842   -1.189498
N       1.881379   -0.432072   -1.884490
C       1.829235   -1.279767   -2.969008
C       0.611909   -1.932870   -2.966009
H      -0.625541    1.579108   -1.090938
H       0.703986    0.128394    0.891309
H      -1.009916   -1.455919    1.020038
H      -2.037736   -0.142343    0.455665
H      -1.681203   -2.634179   -0.893424
H      -2.247180   -1.196056   -1.720471
H       2.652650    0.169761   -1.654319
H       2.663558   -1.355164   -3.648885
H       0.292128   -2.660482   -3.696511
