19

C      -0.044552    1.533423    0.102192
N       0.103752    0.096199    0.147786
C      -1.110292   -0.725103    0.362740
C      -0.382711   -1.523846    1.463902
C      -1.087161   -1.990288    2.705315
O       0.503781   -2.559403    0.908289
C       1.596359   -1.702349    0.907852
N       2.800733   -1.917670    0.641707
C       0.778032   -0.499786    1.330383
H       0.941387    2.003823    0.037091
H      -0.606852    1.812630   -0.794869
H      -0.572715    1.956163    0.978878
H      -1.954302   -0.151555    0.776230
H      -1.448300   -1.288251   -0.512884
H      -1.787200   -2.798169    2.465114
H      -0.370069   -2.369785    3.438636
H      -1.653541   -1.171850    3.158969
H       2.953149   -2.889088    0.363188
H       1.144366    0.178199    2.102418
