14

O      -0.015829    0.005901   -0.103568
C      -0.028580    1.187852    0.045421
C      -1.086116    2.306655   -0.002002
C      -1.265060    2.928670    1.375900
O      -0.002842    3.177243    2.025695
C       1.171339    2.903532    1.400001
O       2.216714    3.086873    1.949660
C       1.015704    2.329892   -0.002797
N      -0.047002    3.148182   -0.700283
H      -2.037972    2.146489   -0.511296
H      -1.774363    3.892830    1.285516
H      -1.844393    2.270864    2.031174
H       1.980535    2.208004   -0.490332
H      -0.032885    2.897807   -1.687767
