20

C      -0.054294    1.580089    0.012864
C       0.016927    0.042952   -0.004047
C       0.758725   -0.485599   -1.239566
O       2.156490   -0.276483   -1.125556
C       2.750535   -1.044230   -0.087310
C       4.162493   -0.498418    0.114287
C       1.934135   -1.006370    1.180420
C       0.704786   -0.498519    1.225784
H       0.951504    2.000855   -0.073619
H      -0.658453    1.953987   -0.820966
H      -0.498482    1.948459    0.943103
H      -1.009477   -0.349977   -0.032214
H       0.543239   -1.558096   -1.375177
H       0.445657    0.040753   -2.146876
H       2.830257   -2.097344   -0.421747
H       4.122258    0.535420    0.468926
H       4.706516   -1.100220    0.848510
H       4.710183   -0.521993   -0.831541
H       2.405444   -1.419902    2.068844
H       0.160393   -0.457535    2.166456
