24

C       0.271869    0.744813   -0.870055
C      -0.315772    0.241521    0.452998
N      -1.509918   -0.585821    0.424878
C      -2.046654   -0.900331   -0.666911
O      -3.156294   -1.671227   -0.676334
C      -3.706593   -1.962708   -1.961908
C      -4.897763   -2.900145   -1.780223
C      -5.596317   -3.123303   -3.127235
C      -4.473097   -4.224470   -1.133845
H       1.158481    1.353437   -0.668131
H       0.578444   -0.079810   -1.522765
H      -0.439777    1.368788   -1.421580
H       0.452935   -0.325202    0.995646
H      -0.540388    1.102836    1.096463
H      -1.702246   -0.608177   -1.667269
H      -4.023889   -1.030331   -2.450029
H      -2.943930   -2.436206   -2.598842
H      -5.597645   -2.393703   -1.102674
H      -4.925516   -3.612092   -3.843886
H      -6.472737   -3.766823   -3.005989
H      -5.932521   -2.180316   -3.571544
H      -3.788557   -4.776365   -1.789901
H      -3.964180   -4.050028   -0.183243
H      -5.342331   -4.863323   -0.948786
