15

O      -0.225847    1.276214   -0.236681
C       0.040036   -0.097353    0.052160
C      -1.320162   -0.843992    0.089820
C      -1.451584   -1.536485   -1.287269
C      -0.039761   -1.537180   -1.812605
C       0.781204   -0.790042   -1.078948
C       0.773100   -0.188081    1.333972
N       1.370513   -0.243821    2.322072
H       0.614511    1.724261   -0.388230
H      -1.304611   -1.589765    0.887250
H      -2.117310   -0.131240    0.306104
H      -1.866666   -2.546187   -1.200711
H      -2.114501   -0.986214   -1.966961
H       0.248676   -2.071865   -2.711067
H       1.835767   -0.616991   -1.258785
