19

C      -0.175330    1.546565   -0.076072
C      -0.048317    0.062621    0.026404
C       0.076954   -1.062552   -0.952217
O       1.226637   -1.660295   -0.359441
C       0.867753   -0.933383    0.863173
C       2.030513   -0.614677    1.750146
C      -0.413841   -1.671796    1.348485
C      -1.056585   -1.072671    0.098905
O      -2.392943   -0.964135   -0.223115
H       0.756239    2.010604   -0.418272
H      -0.963848    1.807731   -0.789367
H      -0.443756    1.996799    0.886576
H      -0.072593   -1.117648   -2.023590
H       2.782347   -0.031392    1.210872
H       1.703490   -0.044838    2.625026
H       2.500910   -1.540347    2.099359
H      -0.334929   -2.759489    1.452469
H      -0.821832   -1.221346    2.257529
H      -2.677032   -1.788825   -0.633417
