21

C      -0.091105    1.578088    0.018866
C      -0.021201    0.078636   -0.052081
C       0.601451   -0.681263   -1.228873
C      -0.405366   -1.858990   -1.008042
C       0.170772   -3.125620   -0.367637
C       1.126114   -2.764895    0.774846
O       0.606364   -1.802140    1.684064
C      -0.220859   -0.797587    1.164457
C      -1.154684   -0.989394    0.021465
H       0.902055    2.011283    0.191627
H      -0.478240    2.003696   -0.914964
H      -0.742197    1.913746    0.832855
H       0.384639   -0.166816   -2.170022
H       1.675060   -0.891662   -1.197480
H      -0.986756   -2.095383   -1.900649
H      -0.653904   -3.742580    0.010140
H       0.721310   -3.729354   -1.099046
H       1.355931   -3.647974    1.379383
H       2.078114   -2.402344    0.360271
H      -0.631438   -0.246681    2.006112
H      -2.230983   -0.873250    0.090836
