21

C      -0.003818    1.397200    0.009769
O       0.016629   -0.016645   -0.036737
C      -1.237194   -0.594987   -0.005524
C      -2.142875   -0.545896    1.263396
C      -2.664798   -1.898191    0.782117
C      -2.725156   -1.850074   -0.758799
C      -2.239521   -0.468956   -1.193940
C      -1.431558   -2.168807   -0.047023
C      -0.462541   -3.300925   -0.120353
H       1.034648    1.734053   -0.020328
H      -0.541795    1.824849   -0.848406
H      -0.471481    1.767221    0.933418
H      -1.543850   -0.650841    2.172591
H      -2.845078    0.289518    1.368167
H      -3.254111   -2.617680    1.336608
H      -3.357696   -2.535073   -1.309326
H      -2.945852    0.369548   -1.190898
H      -1.713864   -0.515289   -2.152063
H       0.148783   -3.249866   -1.028441
H       0.219902   -3.303213    0.737088
H      -0.991202   -4.260506   -0.128049
