16

N       0.511072    0.507754   -0.749482
C      -0.034405    0.055299    0.408817
O       0.335638    0.412864    1.510567
C      -1.176352   -0.929754    0.278243
C      -1.783582   -1.496464   -0.995193
O      -1.028783   -1.367412   -2.188241
C      -0.115863   -2.463371   -2.167857
O       0.180725   -2.719930   -0.811957
C      -0.991474   -2.393302   -0.102498
H       1.259003    1.178031   -0.685651
H       0.141974    0.222260   -1.642365
H      -1.889133   -0.792919    1.086121
H      -2.856838   -1.537977   -1.142096
H      -0.581707   -3.342200   -2.642393
H       0.800314   -2.177038   -2.689891
H      -1.396811   -3.188530    0.512529
