13

N       0.039105   -1.164102   -0.075160
C       0.020654   -0.007375   -0.043729
C      -0.045561    1.405915   -0.001572
C      -1.129043    2.255252    0.127376
C      -2.543717    2.801061    0.282060
C      -1.862062    4.225329    0.250482
N      -0.588729    3.474660    0.104478
N       0.753072    3.474460   -0.028855
N       1.075645    2.212354   -0.092459
H      -3.214987    2.597767   -0.553210
H      -3.038250    2.552589    1.221903
H      -2.093891    4.848947   -0.613476
H      -1.915869    4.803340    1.173563
