25

C       0.150645    1.518653    0.264256
C       0.259150    0.004620    0.046262
C       0.682213   -0.470475   -1.373996
C      -0.317454    0.011699   -2.444442
C       2.078876    0.083360   -1.712049
C       0.694969   -2.018083   -1.349356
C      -0.641194   -2.733644   -1.234056
C       1.801807   -2.799421   -1.931109
O       1.719216   -2.594805   -0.518025
H       1.108463    2.030255    0.132408
H      -0.572597    1.982117   -0.414266
H      -0.185702    1.723782    1.285635
H       0.975090   -0.414211    0.762609
H      -0.712026   -0.439199    0.292423
H      -0.256117    1.096193   -2.573377
H      -0.098508   -0.445207   -3.415961
H      -1.351367   -0.232307   -2.182677
H       2.838536   -0.336356   -1.046837
H       2.357453   -0.139783   -2.746453
H       2.096771    1.170744   -1.607118
H      -1.240731   -2.607106   -2.140435
H      -0.467325   -3.801802   -1.083851
H      -1.230152   -2.370697   -0.387573
H       1.607345   -3.819147   -2.264142
H       2.639475   -2.313913   -2.423097
