18

C       0.190051    1.579532   -0.055300
C       0.067276    0.066120    0.020632
O       0.743272   -0.497455   -1.107319
C       1.245889   -1.783671   -0.785920
C       1.460949   -1.777072    0.723924
N       2.189987   -0.551812    1.161272
C       0.721769   -0.585275    1.228389
C       1.593524   -3.001565    1.448043
C       1.727801   -4.043927    2.033895
H       1.240102    1.869269    0.028478
H      -0.200473    1.940831   -1.010334
H      -0.379242    2.053322    0.750772
H      -0.995643   -0.230698    0.012327
H       0.532028   -2.581321   -1.042996
H       2.170009   -1.935578   -1.351296
H       2.568999   -0.724734    2.090249
H       0.215973   -0.592971    2.187680
H       1.841299   -4.961659    2.556095
