18

C      -0.708962    1.253997    0.057086
C      -0.003751   -0.096549   -0.035841
C       0.895933   -0.389232   -1.294604
O       1.063836    0.641275   -2.243759
C       2.099666   -0.621412   -0.357463
C       3.218895   -1.592325   -0.498360
N       3.472808   -0.157625   -0.610141
C       1.255856   -0.273977    0.850129
O       1.464870   -0.174057    2.024707
H      -0.013761    2.091759   -0.064990
H      -1.484819    1.345900   -0.707883
H      -1.172473    1.364499    1.041045
H      -0.720678   -0.906386    0.140765
H       0.581918   -1.263230   -1.869210
H       1.305682    1.451212   -1.780662
H       3.621950   -2.057397    0.396994
H       3.230130   -2.208815   -1.394196
H       3.518455    0.111787   -1.593830
