16

C      -0.026347    1.456864    0.039494
C       1.414543    1.981880    0.018934
O       2.145173    1.548550    1.171251
C       1.990496    0.216340    1.394926
C       2.761655   -0.618625    2.140817
O       2.237348   -1.877594    2.092096
C       1.116610   -1.834326    1.318771
C       0.914908   -0.569206    0.855637
N      -0.103873   -0.007603    0.061614
H      -0.525334    1.849892    0.934193
H      -0.569553    1.831142   -0.832432
H       1.928919    1.640288   -0.891625
H       1.435219    3.074144    0.045504
H       3.651226   -0.484656    2.730340
H       0.594812   -2.766110    1.182459
H      -0.141526   -0.404055   -0.868570
