16

N       0.146597    1.154639    0.738783
C       0.035820    0.067136    0.130574
C      -1.113273   -0.846513   -0.251190
C      -0.004550   -1.687431   -0.865224
C       0.248174   -3.143916   -0.906849
C       0.078390   -2.348644   -2.216135
C      -1.103357   -2.491875   -3.011060
C      -2.109963   -2.597121   -3.661537
O       1.005234   -0.747644   -0.443928
H       1.121023    1.454931    0.794991
H      -1.643031   -1.289905    0.593616
H      -1.828743   -0.423869   -0.958431
H       1.251286   -3.488104   -0.681684
H      -0.553466   -3.814484   -0.618507
H       1.000590   -2.160118   -2.758647
H      -2.991657   -2.696892   -4.244859
