19

C      -0.057945    1.477237    0.167258
C       1.400013    1.887509    0.115999
C       2.173907    0.920784   -0.396965
C       3.507664    0.518967    0.106871
C       3.394969   -0.392575    1.083418
C       2.011314   -0.846435    1.543600
C       1.012212   -1.009493    0.369906
C       0.002867    0.002505   -0.227611
C       1.336798   -0.241628   -0.874054
H      -0.451124    1.642511    1.179618
H      -0.718351    2.035495   -0.512441
H       1.778472    2.738143    0.673524
H       4.456575    0.895268   -0.259858
H       4.266817   -0.813645    1.576853
H       2.091423   -1.797667    2.079104
H       1.629776   -0.125071    2.278657
H       0.672294   -2.032616    0.229514
H      -0.895615   -0.452191   -0.631497
H       1.516795   -0.706514   -1.837617
