20

O      -0.095799   -0.021466    0.055092
C      -0.004124    1.189665    0.057424
N       1.161298    1.894845    0.016292
C       2.437650    1.182093   -0.022423
C       3.458078    1.851506    0.896334
C       3.726666    3.301542    0.464847
C       2.430132    4.086720    0.258198
C       1.772213    4.127894   -1.108319
C       1.146694    3.331780    0.010724
H      -0.886520    1.857613    0.107726
H       2.223454    0.155025    0.276237
H       2.822341    1.147815   -1.052752
H       3.075921    1.830752    1.923872
H       4.387974    1.273690    0.884237
H       4.341740    3.804020    1.217324
H       4.315761    3.301035   -0.460397
H       2.331092    4.983882    0.860425
H       1.276438    5.037872   -1.428226
H       2.260636    3.578547   -1.906871
H       0.238165    3.728389    0.451586
