19

O       0.003892    1.298803   -0.403858
C       0.030850   -0.043497    0.040844
C       0.339780   -1.072594   -1.090895
C      -1.167654   -1.450119   -1.151613
C      -1.414363   -0.629687    0.149281
C      -1.416431   -1.412000    1.442893
O      -0.393024   -2.422372    1.503531
C      -0.160746   -1.180958    2.181137
C       0.726996   -0.221728    1.413636
H       0.887721    1.526096   -0.713271
H       0.760112   -0.627964   -1.997438
H       0.973922   -1.895742   -0.758316
H      -1.681833   -1.025435   -2.015883
H      -1.395673   -2.515151   -1.088581
H      -2.219552    0.107937    0.123133
H      -2.347800   -1.678896    1.936378
H      -0.090928   -1.253209    3.264202
H       1.754946   -0.591075    1.326040
H       0.753043    0.746185    1.926730
