22

C       0.161351    1.515137    0.085388
C      -0.041884    0.000909   -0.006800
C      -1.519826   -0.488743   -0.036430
C      -2.263668    0.071695   -1.270614
C      -1.513932   -2.040397   -0.039149
C      -2.877126   -2.719725    0.052496
O      -2.629032   -4.117735    0.086002
C      -2.196678   -0.012132    1.183186
N      -2.724802    0.364492    2.140679
H       1.227370    1.743948    0.174114
H      -0.211165    2.037843   -0.800295
H      -0.343833    1.930803    0.962542
H       0.440231   -0.387865   -0.911857
H       0.454570   -0.482114    0.842073
H      -1.768281   -0.278811   -2.181619
H      -3.304728   -0.256691   -1.296054
H      -2.261770    1.163426   -1.274057
H      -1.014485   -2.373968   -0.955905
H      -0.908933   -2.397837    0.800714
H      -3.401642   -2.382964    0.958915
H      -3.504378   -2.453856   -0.811809
H      -3.470391   -4.568763    0.200915
