16

N      -0.007789    1.452256    0.308936
C      -0.002342    0.037722    0.008318
C      -1.406765   -0.549484   -0.201567
C      -1.138741   -1.856853   -0.956235
O       0.175539   -1.743607   -1.547555
C       0.702921   -0.461838   -1.295540
C       0.443963    0.470054   -2.416970
N       0.214937    1.219308   -3.267227
H       0.930914    1.791684    0.492524
H      -0.369292    1.985983   -0.477379
H       0.491983   -0.485094    0.834723
H      -1.935678   -0.701349    0.740577
H      -1.998200    0.142967   -0.810365
H      -1.121441   -2.725486   -0.288858
H      -1.870839   -2.046771   -1.747761
H       1.787371   -0.553184   -1.173161
