20

C      -0.017321    1.569344    0.021448
C      -0.063486    0.042793   -0.007546
C      -1.465441   -0.435782   -0.376686
C       1.174227   -0.680710   -0.652240
N       1.997276   -0.159364    0.525010
C       0.708491   -0.700700    1.142361
C       0.846766   -1.912934    0.206900
C       0.339071   -3.269838    0.060039
O       1.714904   -3.002173    0.420070
H       0.973647    1.936636    0.282834
H      -0.298119    1.973853   -0.957834
H      -0.741202    1.954839    0.748673
H      -1.753000   -0.039002   -1.356794
H      -1.563150   -1.521593   -0.414456
H      -2.195311   -0.058505    0.348359
H       1.538179   -0.627917   -1.679532
H       2.752260   -0.824306    0.713538
H       0.526722   -0.671326    2.217849
H      -0.264140   -3.719051    0.848135
H       0.197602   -3.699247   -0.931096
