25

C       0.194942    1.446019    0.285396
C      -0.193499    0.034954   -0.175067
C       0.602985   -0.477408   -1.367627
C       0.404364    0.288837   -2.663004
C       1.977486   -1.060158   -1.095121
C       0.831637   -1.963730   -1.467497
C       0.267915   -3.093838   -0.589366
C       0.538242   -4.079288   -1.763960
C       0.779373   -2.867297   -2.710964
H       1.259416    1.497275    0.538332
H       0.001684    2.194266   -0.489616
H      -0.375708    1.738106    1.172685
H      -0.066880   -0.659429    0.663702
H      -1.264123    0.016461   -0.423529
H       0.737780    1.328545   -2.573893
H       0.965821   -0.164651   -3.485037
H      -0.653441    0.304745   -2.953925
H       2.761513   -0.898215   -1.829745
H       2.330538   -1.082363   -0.067414
H       0.786424   -3.298282    0.351497
H      -0.799579   -2.975820   -0.374723
H       1.444706   -4.669194   -1.608257
H      -0.274362   -4.757966   -2.032116
H      -0.081283   -2.656841   -3.354881
H       1.675420   -2.904886   -3.336746
