16

C      -0.178813    1.490716   -0.135828
N       0.028018    0.058419    0.032923
C       1.371181   -0.467186   -0.164340
C       0.759542   -0.443028    1.197213
C       1.304583    0.453263    2.263898
C       0.710401    0.479266    3.608435
O       1.930902   -0.219155    3.361206
H       0.700169    2.115033    0.088331
H      -0.462517    1.678708   -1.176160
H      -1.005010    1.817214    0.503678
H       1.449904   -1.396628   -0.722115
H       2.175338    0.245061   -0.352285
H       0.355332   -1.369631    1.602888
H       1.840464    1.340756    1.929889
H       0.797376    1.374260    4.223023
H      -0.152234   -0.150802    3.822565
