15

O       0.009565    1.452642   -0.056678
C       0.078950    0.047206   -0.091968
C      -1.322371   -0.554774    0.070903
N      -2.175289   -0.113118   -1.046220
C      -2.668788   -1.153526   -1.565683
O      -2.370891   -2.374459   -1.046731
C      -1.431089   -2.120295    0.025175
C      -0.178556   -2.830435   -0.256496
N       0.814523   -3.388116   -0.449036
H      -0.642604    1.711991   -0.719414
H       0.526548   -0.324236   -1.026627
H       0.725885   -0.265239    0.733796
H      -1.746050   -0.176123    1.006471
H      -3.339010   -1.188587   -2.416606
H      -1.856877   -2.525819    0.946323
