19

C      -0.192573    1.543234    0.024005
C       0.069942    0.036111   -0.002194
C       0.905650   -0.468691   -1.194397
C       1.956081   -1.394438   -0.597692
O       2.755573   -2.086786   -1.181450
N       1.860474   -1.292769    0.787148
C       2.759132   -1.998203    1.675908
C       0.840985   -0.444740    1.223344
N       0.549533   -0.111848    2.413306
H       0.747587    2.103686   -0.014964
H      -0.804408    1.844218   -0.831751
H      -0.710980    1.818657    0.944617
H      -0.894118   -0.485771    0.015703
H       0.329933   -1.004106   -1.952263
H       1.427482    0.346929   -1.707240
H       3.426148   -2.597119    1.054930
H       3.350380   -1.295351    2.272999
H       2.200771   -2.653472    2.352698
H       1.168867   -0.543332    3.099834
