22

C      -0.113611    1.407820    0.189990
C       0.112411   -0.052352    0.524481
C       1.327175   -0.863962    0.159180
C       0.990799   -0.579489    1.628255
C       2.289843    0.229858    1.792089
C       3.239259   -0.326233    2.848823
C       2.636009   -0.062954    0.280712
C       3.892825   -0.879151   -0.004876
H       0.795456    2.007050    0.282246
H      -0.476589    1.518447   -0.837921
H      -0.864739    1.846468    0.856311
H      -0.796492   -0.646064    0.431362
H       1.240687   -1.796182   -0.390026
H       0.606058   -1.259456    2.381754
H       2.128090    1.294565    2.001160
H       3.392762   -1.403893    2.736908
H       4.218926    0.161177    2.809281
H       2.826203   -0.157916    3.849749
H       2.664440    0.840958   -0.340255
H       3.896798   -1.830263    0.536237
H       3.953784   -1.111961   -1.073935
H       4.801302   -0.331491    0.266453
