16

C      -0.142469    1.535874   -0.044897
C      -0.027342    0.022737   -0.046182
C      -1.138883   -0.677912    0.541615
N      -2.037511   -1.249851    0.994296
C       0.702444   -0.717241   -1.190873
N       1.323443   -0.077350   -2.296894
C       1.345215   -0.658809    0.175461
C       2.492764    0.180529    0.371786
N       3.410924    0.873341    0.498241
H       0.677613    1.990670   -0.602576
H      -1.084596    1.838687   -0.509959
H      -0.120543    1.930467    0.974225
H       0.268572   -1.682466   -1.435846
H       0.653207    0.285871   -2.964234
H       1.969280    0.656044   -2.031158
H       1.348524   -1.569000    0.764289
