19

C      -0.106921    1.584105    0.112601
C       0.007802    0.055522    0.010331
C       0.781492   -0.421599   -1.207290
C       1.800414   -1.227487   -0.894707
C       2.776570   -1.875959   -1.819799
O       2.397370   -1.627329   -3.160373
C       1.886193   -1.376961    0.593263
O       2.147897   -0.125317    1.274273
C       0.793815   -0.575365    1.162341
H       0.887704    2.027836    0.204454
H      -0.592234    2.000706   -0.775362
H      -0.697918    1.876335    0.986690
H      -1.005257   -0.372882    0.000988
H       0.545658   -0.095552   -2.212942
H       3.788326   -1.486922   -1.607909
H       2.814999   -2.959840   -1.606428
H       3.076463   -1.989834   -3.735925
H       2.312950   -2.255804    1.069714
H       0.305673   -0.811810    2.104596
