17

O      -0.103467    1.449159   -0.039274
C       0.042189    0.033293    0.063997
C      -1.367823   -0.536980   -0.019928
O      -2.160015    0.042534    0.995088
C      -2.091989   -0.578714   -1.401873
N      -2.366478   -2.058639   -1.275215
C      -1.042477   -2.696848   -1.225519
C      -1.546631   -2.051208    0.004156
H       0.727537    1.865950    0.204088
H       0.678922   -0.358417   -0.740280
H       0.484712   -0.252405    1.029594
H      -1.934795    0.982408    0.992547
H      -3.027618   -0.019301   -1.377292
H      -1.516472   -0.312710   -2.294998
H      -1.090497   -3.780874   -1.269983
H      -0.219552   -2.261140   -1.788595
H      -1.854357   -2.599783    0.888215
