20

C       0.315418    1.663460    0.074541
C       0.010781    0.170685    0.038023
C       0.100840   -0.399781   -1.389005
N      -0.174406   -1.819338   -1.550198
C       0.692924   -2.751240   -0.830562
C       0.332134   -2.882175    0.648452
O      -0.116888   -3.900281    1.122589
C       0.504175   -1.640371    1.535835
O       0.956143   -0.475905    0.891820
H       1.333200    1.851337   -0.281998
H      -0.381156    2.219592   -0.560187
H       0.237393    2.044198    1.095840
H      -1.005015   -0.007259    0.430367
H      -0.590404    0.152068   -2.037280
H       1.115385   -0.207847   -1.762944
H      -1.150935   -2.032039   -1.377815
H       0.611815   -3.748411   -1.273858
H       1.726990   -2.402613   -0.932526
H      -0.444900   -1.473827    2.069367
H       1.254399   -1.894612    2.293703
