18

C      -0.216489    1.330720   -0.113481
O      -0.115490   -0.100030   -0.149186
C       0.731738   -0.598625   -1.072636
O       1.359014    0.084114   -1.840136
C       0.720387   -2.119946   -1.045806
N       0.756346   -2.599856    0.318966
C      -0.323670   -2.694850   -2.070029
O       0.720551   -3.171214   -2.927525
C       1.748932   -2.761043   -2.001685
H       0.753797    1.776924    0.116936
H      -0.561304    1.714292   -1.076686
H      -0.938143    1.557696    0.671011
H       0.030839   -2.153704    0.869678
H       0.597593   -3.602209    0.345310
H      -0.930939   -3.507385   -1.645496
H      -0.982785   -1.977342   -2.574006
H       2.463180   -2.068525   -2.454203
H       2.275521   -3.615177   -1.557617
