16

N       0.570032    0.480500   -0.723141
C      -0.135959    0.198114    0.400877
O       0.102976    0.686181    1.489596
C      -1.278750   -0.783490    0.253580
C      -1.797776   -1.405599   -1.016924
O      -1.175999   -1.128529   -2.238387
C      -1.067973   -2.286368   -0.016811
C       0.200624   -2.814478   -0.416160
C       1.232565   -3.279025   -0.826814
H       1.295847    1.174326   -0.653051
H       0.246100    0.156210   -1.621619
H      -2.024568   -0.596715    1.017755
H      -2.874383   -1.532286   -1.104064
H      -0.655109   -1.904045   -2.488683
H      -1.675127   -2.953597    0.586962
H       2.165416   -3.680533   -1.138121
