16

O      -0.027065    0.002918   -0.018167
C       0.016770    1.197304   -0.015833
O      -1.105326    1.987459    0.016366
C      -0.645928    3.366795    0.062095
C      -0.082142    3.601517    1.475493
C       1.230781    2.756994    1.437095
C       1.206613    2.152474   -0.001217
C       0.612558    3.318149   -0.815967
H      -1.471410    4.004709   -0.248584
H       0.114517    4.663077    1.648863
H      -0.788621    3.258245    2.233658
H       2.117476    3.385168    1.556682
H       1.264839    1.983531    2.207016
H       2.132361    1.688741   -0.333024
H       0.393927    3.065762   -1.856240
H       1.207602    4.233901   -0.772022
