15

C      -0.021615    1.556295   -0.014131
C       0.087473    0.046818   -0.092193
C       0.701226   -0.734461   -1.201937
C       1.920051   -0.011667   -1.795520
C       2.558387   -0.082127   -0.381323
O       3.665657    0.137560    0.022045
C       1.355559   -0.750563    0.214318
H       0.853572    2.064015   -0.425702
H      -0.902248    1.906656   -0.563506
H      -0.127540    1.877286    1.027055
H      -0.776074   -0.459698    0.336116
H       0.196874   -1.566294   -1.676387
H       2.500376   -0.632993   -2.484137
H       1.763672    0.969725   -2.250672
H       1.366860   -1.513643    0.983210
