19

C       0.401440    1.751441   -0.601928
C       0.406111    0.251059   -0.402001
C       1.634322   -0.595376   -0.464430
O       2.760967    0.082827    0.108810
C       2.150439    0.000622    1.428584
C       2.219381    1.286009    2.242569
C       3.649224    1.692391    2.539025
O       4.075171    2.812827    2.444368
C       0.848443   -0.528460    0.832939
H       1.393698    2.171573   -0.427917
H       0.119032    1.989047   -1.632907
H      -0.313419    2.250153    0.060884
H      -0.444855   -0.260004   -0.851258
H       1.838276   -1.401262   -1.160140
H       2.654522   -0.802797    1.986532
H       1.701839    2.121647    1.771651
H       1.734494    1.084047    3.210012
H       4.303737    0.855081    2.878811
H       0.215387   -1.268674    1.304054
