16

O       0.170748    1.414571    0.066295
C       0.039331    0.005672   -0.015051
C      -1.401800   -0.419614    0.020699
C      -2.088178   -0.960764    1.203371
N      -1.792320   -1.913601    0.081289
C      -2.826039   -1.626027   -0.901059
O      -3.629196   -2.355536   -1.390482
C      -2.412122   -0.143971   -1.088615
O      -3.353762    0.860185   -0.813259
H      -0.254184    1.708824    0.879018
H       0.490515   -0.280103   -0.970978
H       0.595374   -0.514776    0.779452
H      -1.491442   -1.179524    2.083464
H      -3.122659   -0.697633    1.402223
H      -1.914379   -0.001122   -2.059206
H      -4.031313    0.829276   -1.497884
