18

C       0.157648    1.473980    0.033149
C      -0.047656    0.002165    0.007342
C      -1.151093   -0.797161    0.042147
C      -2.592097   -0.401398    0.112558
C      -0.667293   -2.157845   -0.025589
N      -1.466196   -3.315706   -0.112221
C       0.684818   -2.067189   -0.086919
O       1.637205   -3.026778   -0.101780
O       1.089071   -0.763308   -0.071903
H       0.734535    1.789244    0.911105
H       0.700869    1.820753   -0.854005
H      -0.805039    1.989139    0.061545
H      -3.169506   -0.879941   -0.686825
H      -3.054011   -0.701533    1.062330
H      -2.719370    0.680116    0.018318
H      -2.145778   -3.365121    0.639386
H      -0.891852   -4.150122   -0.071885
H       2.160686   -2.952430   -0.909748
