21

C       0.006266    1.507450   -0.113232
C       0.056124    0.000244   -0.003240
C       1.367989   -0.739277   -0.160635
C       0.691957   -0.687425    1.176638
C       1.163486   -0.016356    2.473383
C       0.188876   -0.961785    3.257998
C       0.066864   -1.842857    1.966521
C       0.661300   -1.583733    4.476601
C       1.073284   -2.109459    5.477314
H       0.912855    1.966851    0.293982
H      -0.079137    1.822440   -1.159083
H      -0.849704    1.924260    0.430183
H      -0.816054   -0.507211   -0.411737
H       1.375565   -1.683139   -0.697359
H       2.266499   -0.143538   -0.297362
H       2.208822   -0.234007    2.709255
H       0.989299    1.056124    2.589577
H      -0.757373   -0.444580    3.445338
H      -0.941967   -2.161096    1.690543
H       0.716056   -2.721434    2.021351
H       1.431603   -2.571331    6.363460
