17

O       0.097818   -0.015092   -0.265077
C      -0.017162    1.168893   -0.086894
C      -1.317251    2.002395   -0.048474
C      -0.820404    3.453623   -0.105364
C      -1.294267    4.612263    0.783925
C       0.055172    5.349396    1.060743
N       1.118874    4.315754    1.013169
C       0.598565    3.332602    0.403938
N       1.041249    2.047335    0.177133
H      -1.985047    1.699409   -0.855746
H      -1.817484    1.774533    0.900716
H      -0.778220    3.778099   -1.154348
H      -2.047689    5.252109    0.319591
H      -1.705075    4.227637    1.724325
H       0.253723    6.120746    0.303994
H       0.071487    5.846115    2.034793
H       1.965590    1.708171    0.398446
