21

C       0.029443    1.336344    0.125095
O       0.026653   -0.066219    0.022881
C       0.645408   -0.529673   -1.158337
C       0.543467   -2.050570   -1.176055
C       1.257490   -2.689756   -2.358798
O       0.700272   -2.148516   -3.533471
C       2.808354   -2.736014   -2.250552
O       2.775312   -4.138654   -1.927296
C       1.378654   -4.233824   -2.267300
H       1.053221    1.744112    0.145893
H      -0.507951    1.809370   -0.712437
H      -0.472555    1.598851    1.059677
H       0.157299   -0.105254   -2.048051
H       1.702646   -0.209831   -1.186055
H       0.966255   -2.449492   -0.247897
H      -0.514224   -2.335941   -1.201558
H       1.147703   -2.536831   -4.292877
H       3.313991   -2.540630   -3.208796
H       3.288188   -2.140672   -1.465864
H       0.794211   -4.745119   -1.494130
H       1.217890   -4.735896   -3.233590
