18

O       0.005799   -0.019643   -0.159297
C      -0.002967    1.179394   -0.025963
C      -1.274636    2.023138    0.119452
C      -0.887884    3.336754    0.807850
C       0.025169    2.972451    2.006584
N       1.232297    3.084600    1.122837
C       0.413289    3.943964    0.170240
C       1.020791    3.201351   -1.022197
C       1.247905    2.045468   -0.003006
H      -1.702722    2.190032   -0.876927
H      -2.013980    1.458398    0.695647
H      -1.739205    4.003228    0.965484
H       0.089013    3.751812    2.771573
H      -0.129730    2.003844    2.494996
H       0.515327    5.028768    0.257356
H       0.418799    2.999803   -1.910678
H       1.967951    3.657778   -1.316156
H       2.156118    1.444795   -0.054401
