20

C       0.914968    0.433663    0.152651
C       0.393439   -0.807718    0.844340
C       1.208413   -2.067428    0.761973
C       1.123874   -1.312667    2.072705
N      -1.039949   -0.954154    0.644219
C      -1.906476   -1.560692    1.615193
C      -2.015331   -0.085208    1.328837
C      -1.615049    0.852333    2.410049
O      -2.166147    1.907943    2.610373
H       2.006218    0.474760    0.202335
H       0.614914    0.435506   -0.899734
H       0.524283    1.346633    0.616115
H       0.667339   -3.005534    0.696909
H       2.135593   -2.045583    0.199794
H       1.989064   -0.750272    2.408514
H       0.570787   -1.780641    2.878568
H      -2.674455   -2.225785    1.229247
H      -1.510328   -1.839214    2.590693
H      -2.820673    0.284032    0.699424
H      -0.765787    0.512849    3.040716
