23

C      -0.053440    1.367169    0.071334
O      -0.048016   -0.037450    0.011753
C       0.704664   -0.541084   -1.071194
C       0.614445   -2.065195   -1.080920
C      -0.847064   -2.543760   -1.314640
C      -0.855183   -2.957478   -2.764048
C       0.367405   -3.020779   -3.295054
C       0.738813   -3.432996   -4.684483
C       1.422299   -2.645315   -2.273512
H       0.961533    1.776369    0.201501
H      -0.485865    1.814536   -0.838191
H      -0.662349    1.658127    0.931085
H       0.323004   -0.135820   -2.025667
H       1.758390   -0.224582   -0.981469
H       0.998790   -2.422997   -0.121742
H      -1.103383   -3.389749   -0.661956
H      -1.566650   -1.752474   -1.078764
H      -1.768574   -3.204211   -3.296487
H      -0.142124   -3.683342   -5.282009
H       1.288024   -2.636763   -5.203750
H       1.401812   -4.308226   -4.674833
H       2.148643   -1.923411   -2.672689
H       2.009492   -3.526950   -1.980383
