21

C      -0.817198    1.119251   -0.072248
C       0.024064   -0.152713   -0.084300
C       1.082872   -0.226467   -1.220490
O       1.644628    1.034688   -1.598763
C       2.127345   -1.151648   -0.639888
C       1.987331   -1.279517    0.677803
C       0.794356   -0.509096    1.220838
C       1.242127    0.689904    2.067776
O      -0.075546   -1.339539    1.998540
H      -0.198651    2.017207   -0.002536
H      -1.397787    1.200515   -0.996654
H      -1.521327    1.109723    0.765430
H      -0.641056   -1.010797   -0.232600
H       0.636786   -0.605228   -2.146047
H       2.287682    1.279091   -0.924817
H       2.917500   -1.585211   -1.243337
H       2.638515   -1.850019    1.334081
H       1.840430    1.398385    1.487005
H       0.373726    1.218550    2.470318
H       1.860741    0.354311    2.909544
H       0.341031   -1.491580    2.853816
