15

N      -0.087762   -1.192633    0.234971
C      -0.061558   -0.041725    0.140398
C       0.014749    1.416367   -0.021366
N      -0.655963    2.118228    1.094833
C       0.235619    2.865138    1.604701
O       1.484392    2.881341    1.098682
C       1.462446    1.958770    0.000533
C       2.707917    1.186868   -0.270431
C       2.273282    2.306142   -1.203249
H      -0.492115    1.670063   -0.960341
H       0.081277    3.526840    2.449237
H       3.552750    1.378959    0.380935
H       2.603942    0.157941   -0.597338
H       1.872075    2.046158   -2.177705
H       2.833006    3.233915   -1.170125
