20

C       0.416152    1.555953   -0.027119
C       0.263172    0.050224    0.091321
C       0.455518   -0.747400   -1.219277
C       1.167830   -2.049888   -0.770729
C       2.527639   -2.208776   -1.442199
O       3.097952   -3.431273   -0.998217
C       1.306047   -1.855233    0.756880
O       1.262228   -0.453502    0.971727
H       1.401947    1.807107   -0.431369
H      -0.348873    1.968058   -0.692527
H       0.313944    2.032689    0.951712
H      -0.732247   -0.185688    0.508640
H      -0.494245   -0.937810   -1.724873
H       1.087199   -0.180445   -1.913374
H       0.574314   -2.940705   -0.995618
H       2.405278   -2.200881   -2.537301
H       3.161388   -1.348296   -1.172338
H       3.994711   -3.489079   -1.339836
H       0.478282   -2.352272    1.288076
H       2.249936   -2.238952    1.149637
