17

O      -0.370437    1.653044   -0.267377
C       0.035494    0.342638    0.061984
C      -1.132475   -0.666760    0.060002
C      -2.083056   -0.411712    1.148167
C      -2.875902   -0.213857    2.030870
N      -1.707396   -0.685602   -1.298009
C      -2.983933   -1.361908   -1.506245
C      -2.898536    0.120551   -1.579639
H      -0.658180    1.633918   -1.185880
H       0.796880   -0.032966   -0.636452
H       0.474269    0.389854    1.062738
H      -0.692646   -1.661247    0.217616
H      -3.562726   -0.033613    2.820909
H      -3.049103   -1.962271   -2.409007
H      -3.486694   -1.775084   -0.634808
H      -3.343208    0.679815   -0.761392
H      -2.896779    0.623640   -2.542859
