17

C       0.290368    1.403975    0.091321
O       0.243293   -0.029487    0.031875
C       0.848534   -0.575268   -1.021804
O       1.412937    0.033060   -1.897471
C       0.746570   -2.119652   -1.001102
O       0.174247   -2.693539   -0.108963
C       1.412306   -2.803633   -2.168304
C       1.290943   -4.318551   -2.110953
O       1.951944   -4.831131   -3.256607
H       1.326117    1.750569    0.129397
H      -0.194758    1.838424   -0.786343
H      -0.241633    1.679044    1.001127
H       0.982304   -2.413503   -3.099223
H       2.465402   -2.498028   -2.203852
H       1.740736   -4.690356   -1.178811
H       0.228994   -4.603593   -2.089785
H       1.886171   -5.790140   -3.235354
