20

C      -0.274849    1.516333    0.082972
C       0.044911    0.042759    0.011493
C      -0.001771   -0.563564   -1.182368
N       0.200052   -1.898353   -1.559528
C       0.185402   -3.087981   -0.859378
O       0.342455   -4.138487   -1.452980
C      -0.023846   -3.013674    0.639497
C       0.903794   -2.011837    1.347870
C       0.368287   -0.579640    1.346438
H       0.565647    2.084808    0.502445
H      -0.508762    1.934859   -0.899513
H      -1.134792    1.705858    0.739600
H      -0.234528    0.047535   -2.049646
H       0.307032   -2.060884   -2.550734
H      -1.071973   -2.751906    0.837494
H       0.132208   -4.030036    1.005095
H       1.034942   -2.326477    2.388418
H       1.899434   -2.045713    0.890376
H       1.092285    0.070966    1.857821
H      -0.535375   -0.537632    1.975457
