13

N       0.116925    1.419662    0.036255
C       0.035444   -0.006967    0.084629
C      -0.533865   -0.697786    1.282347
C      -1.318693   -0.730961   -0.027489
O      -2.411496    0.129219   -0.155727
C      -1.408715   -1.967505   -0.762156
N      -1.476047   -2.962870   -1.349794
H       0.202254    1.728411   -0.928128
H      -0.743368    1.827121    0.390421
H       0.864803   -0.502206   -0.409034
H      -0.071279   -1.612997    1.632831
H      -0.973256   -0.076277    2.056532
H      -3.158322   -0.251132    0.320924
