17

C      -0.037629    1.440275    0.050808
N      -0.033570   -0.009959    0.064181
C       0.523419   -0.625502   -0.909772
N       1.142789   -0.016118   -2.011180
N       1.745294   -0.610060   -3.066374
N       1.780363   -1.875553   -3.110352
C       1.202664   -2.606840   -2.080284
C       0.585430   -2.076702   -0.998625
C      -0.029166   -2.884737    0.097006
H       0.978230    1.870446    0.055157
H      -0.568063    1.858063   -0.821622
H      -0.547281    1.808075    0.944435
H       1.171165    0.989906   -2.075614
H       1.286043   -3.680320   -2.212018
H       0.086103   -3.955327   -0.086060
H       0.426244   -2.627488    1.058902
H      -1.092748   -2.643650    0.194946
