21

C      -0.623530    0.880224   -1.598492
C       0.342616   -0.168960   -1.075742
C       1.863274   -0.023177   -1.342999
C       2.137733   -0.609656    0.066188
C       3.296275   -0.082134    0.895043
C       0.666472   -0.217676    0.463318
N       0.615920    1.115765    1.057271
C      -0.075424   -1.216598    1.243825
N      -0.664992   -1.989581    1.872094
H      -0.327113    1.883124   -1.279491
H      -0.637369    0.866504   -2.693458
H      -1.647658    0.693276   -1.255732
H       0.013245   -1.167379   -1.379312
H       2.276780   -0.559046   -2.199830
H       2.158401    1.028028   -1.401316
H       2.187019   -1.701037    0.003451
H       3.247429    1.005660    0.993774
H       3.309651   -0.523497    1.898190
H       4.247720   -0.333303    0.414439
H      -0.349362    1.420837    1.144303
H       0.996245    1.091016    1.999158
