23

C      -0.374867    1.531638   -0.121118
C      -0.073211    0.054652   -0.012506
O      -1.191689   -0.746778   -0.332456
C       1.275081   -0.553142   -0.357684
C       2.509726    0.278871   -0.698319
C       3.406796    0.525010    0.526207
C       2.610166    1.143990    1.680156
C       1.489688    0.203595    2.172322
C       0.752529   -0.559785    1.079445
H       0.469078    2.165046    0.154541
H      -0.656289    1.789680   -1.150584
H      -1.219152    1.786504    0.527359
H      -1.365145   -0.641006   -1.274912
H       1.195693   -1.503926   -0.875874
H       3.082193   -0.234868   -1.477355
H       2.222594    1.247002   -1.128821
H       3.842397   -0.427934    0.855872
H       4.243748    1.176440    0.250559
H       3.272769    1.374421    2.521610
H       2.196344    2.105760    1.353336
H       1.951179   -0.546521    2.826861
H       0.782350    0.756460    2.803023
H       0.344583   -1.510792    1.408259
