20

C       0.083279    1.502477    0.124603
N      -0.017752    0.061495    0.156736
C      -1.298647   -0.550946    0.551191
C      -0.505249   -1.674333    1.251442
C       0.700153   -0.678549    1.208015
N      -1.048377   -2.174578    2.491907
C      -0.196303   -3.163904    3.142688
C      -0.806430   -3.650258    4.383582
N      -1.273429   -4.016906    5.374155
H       1.111913    1.797847   -0.107413
H      -0.565694    1.902998   -0.661382
H      -0.202945    1.980121    1.081781
H      -1.862179    0.050385    1.287907
H      -1.969439   -0.816904   -0.271584
H      -0.334871   -2.521604    0.580416
H       1.693220   -1.043243    0.923698
H       0.781677   -0.120043    2.159401
H      -1.237567   -1.409403    3.131731
H      -0.068649   -4.016409    2.463938
H       0.819311   -2.803787    3.386143
