16

C      -0.154579    1.347814   -0.047926
N       0.054704   -0.093278    0.034612
C       1.434848   -0.554529   -0.183116
C       0.840034   -0.562424    1.187048
C       0.707042   -2.075895    1.407278
O       1.961066   -2.598788    0.847765
C       1.511295   -2.065220   -0.445317
C       0.111898   -2.550525    0.045278
O      -0.765003   -3.249628   -0.339432
H       0.696416    1.940932    0.324867
H      -0.335047    1.621360   -1.091485
H      -1.041257    1.611986    0.535536
H       2.201999    0.141540   -0.502068
H       1.127958    0.127282    1.972012
H       0.455685   -2.481314    2.384404
H       2.055191   -2.460084   -1.300057
