23

C      -0.154065    1.383942    0.047257
O       0.073146   -0.007797   -0.031214
C       0.697407   -0.562531    1.080112
C       0.033547   -0.619488    2.498437
C       1.025340   -1.805230    2.664603
C       0.775544   -2.104507    1.158549
C       2.392308   -1.075537    2.655285
C       3.617968   -1.981104    2.556137
C       2.150623   -0.144506    1.418770
H       0.782502    1.958574    0.074796
H      -0.710639    1.666976   -0.849233
H      -0.750647    1.649882    0.932177
H       0.144359    0.237023    3.170464
H      -1.009968   -0.938191    2.446716
H       0.875611   -2.567702    3.428735
H      -0.196628   -2.567268    0.977236
H       1.550866   -2.611970    0.578920
H       2.483042   -0.472340    3.566352
H       3.581132   -2.620562    1.668014
H       4.538374   -1.390102    2.497546
H       3.696829   -2.633280    3.433273
H       2.830288   -0.359693    0.588046
H       2.243358    0.916169    1.667430
