16

O      -0.174030    0.012941    0.030673
C      -0.109252    1.198692    0.071582
O       1.073521    1.863121   -0.084044
C       1.057693    3.228807   -0.023364
N       2.127811    3.865680   -0.165142
C       2.071175    5.301603   -0.094340
C       3.131144    5.970884    0.813583
O       3.614260    6.783311   -0.273394
C       2.810412    6.058653   -1.224017
H      -0.965720    1.877444    0.234026
H       0.065048    3.664969    0.152184
H       1.056111    5.685784    0.081963
H       2.753833    6.574258    1.646579
H       3.887313    5.264877    1.177645
H       3.409110    5.395778   -1.860357
H       2.203827    6.724782   -1.847432
