16

O      -0.005062    1.430289   -0.059718
C      -0.010236    0.019718    0.061300
C      -1.420295   -0.462134    0.083604
C      -2.560842    0.240820    0.045872
C      -3.721085   -0.688861    0.028782
C      -3.866820   -1.612329   -1.140109
N      -3.187013   -2.051922    0.095716
C      -1.747496   -1.914053    0.028336
O      -0.980592   -2.836725   -0.078772
H       0.908192    1.729445   -0.034965
H       0.517797   -0.472573   -0.771723
H       0.496004   -0.314756    0.981818
H      -2.643929    1.319128    0.040392
H      -4.590390   -0.474748    0.644149
H      -4.820725   -2.094528   -1.334241
H      -3.250468   -1.420152   -2.014671
