19

C      -0.004616    1.441098    0.032476
N       0.021732   -0.004197    0.019185
C       0.054260   -0.785061   -1.110280
C       0.071759   -2.100737   -0.722736
C       0.049136   -2.132942    0.703331
C       0.058013   -3.371406    1.549809
C       0.018341   -0.819444    1.137048
C      -0.014536   -0.240904    2.513740
H       0.867041    1.854499    0.552357
H       0.006443    1.804640   -0.996575
H      -0.907882    1.822509    0.521992
H       0.061778   -0.330169   -2.088503
H       0.097893   -2.955544   -1.382245
H       0.953049   -3.979108    1.369372
H       0.035874   -3.137716    2.618072
H      -0.807408   -4.011691    1.340017
H       0.853246    0.399084    2.721326
H      -0.910962    0.367524    2.692442
H      -0.012372   -1.039562    3.258159
