21

C      -0.002633    1.531014    0.041971
C       0.070457    0.000522   -0.001112
C       0.655292   -0.536102   -1.281908
C       0.041856   -0.382917   -2.705387
C       1.109506   -1.469585   -3.033374
C       2.395432   -0.705967   -2.700697
O       2.001518   -0.056202   -1.473645
C       0.776560   -2.045540   -1.615557
O       1.741764   -2.752085   -0.886642
H       0.990551    1.966155   -0.092388
H      -0.650541    1.920719   -0.750497
H      -0.404081    1.874859    0.999842
H       0.685454   -0.369444    0.827725
H      -0.929103   -0.431545    0.128520
H      -0.985535   -0.742762   -2.786971
H       0.154118    0.593173   -3.180076
H       1.088311   -2.070940   -3.941951
H       3.247687   -1.367182   -2.512336
H       2.666949    0.041260   -3.455274
H      -0.202131   -2.540475   -1.600476
H       1.714308   -3.674953   -1.156796
