17

O       0.376352   -0.019619    0.131156
C       0.206693    1.157604    0.114350
C      -1.008967    2.083767   -0.069924
C       0.016762    3.221889    0.002651
C       0.779803    3.116657    1.254039
N       1.196142    2.220310    0.126198
C       0.105151    4.393974   -0.903931
C      -0.579899    4.433034   -2.219743
N      -1.073140    5.261609   -1.106400
H      -1.464597    1.932349   -1.051073
H      -1.785884    2.052570    0.698086
H       1.528740    3.873520    1.463558
H       0.334988    2.665652    2.138209
H       1.034593    4.949384   -0.800097
H      -0.127178    4.988367   -3.035787
H      -1.163777    3.572845   -2.533305
H      -1.895281    4.824635   -0.693874
