22

C      -0.371959    1.313119   -0.114834
O      -0.261144   -0.087653   -0.178016
C       0.792147   -0.516577   -1.016313
C       0.815187   -2.031274   -1.022377
C       0.801462   -2.656727    0.359730
N       0.007731   -2.662035   -2.086155
C       1.480751   -2.788624   -2.121064
C       2.136849   -2.202589   -3.352618
O       1.776277   -2.943776   -4.506057
H       0.545027    1.779235    0.280662
H      -0.578660    1.752046   -1.103746
H      -1.203235    1.546139    0.555008
H       0.645289   -0.133071   -2.035025
H       1.757075   -0.128076   -0.643174
H      -0.102111   -2.365496    0.900662
H       0.840900   -3.748731    0.294970
H       1.663176   -2.322828    0.948477
H      -0.416893   -3.520000   -1.742909
H       1.892064   -3.755827   -1.833995
H       1.876008   -1.141762   -3.468265
H       3.226936   -2.268934   -3.269491
H       0.811280   -2.957350   -4.512832
