16

C       0.011550    1.439091    0.101180
C       1.470212    1.934046   -0.135597
C       2.232271    0.644276   -0.016925
C       3.493179    0.116571    0.101765
N       3.359512   -1.252027    0.067398
C       2.023785   -1.614196   -0.072634
C       1.322362   -0.436606   -0.129545
N       0.004117    0.018201   -0.334071
H      -0.229964    1.528652    1.171513
H      -0.727020    2.016537   -0.462250
H       1.568985    2.370925   -1.138089
H       1.749929    2.708453    0.584516
H       4.463374    0.574217    0.211100
H       4.113233   -1.902860    0.193301
H       1.728377   -2.649125   -0.110345
H      -0.714092   -0.529065    0.122752
