22

C       0.046741    1.351130    0.237162
O      -0.032583   -0.050946    0.293170
C      -1.256403   -0.550033   -0.213260
C      -1.216821   -2.053388   -0.152296
C      -1.583900   -2.792393    1.114518
C      -2.455311   -2.927867   -0.112887
C      -3.844274   -2.313740   -0.095965
C      -2.386003   -4.235425   -0.881874
H       1.020797    1.641870    0.638732
H      -0.037828    1.727756   -0.795477
H      -0.741827    1.832813    0.838535
H      -2.098109   -0.146519    0.372694
H      -1.397851   -0.206917   -1.253786
H      -0.380748   -2.464859   -0.712539
H      -0.971235   -3.634894    1.418052
H      -1.962037   -2.199710    1.942108
H      -3.893229   -1.402872    0.505675
H      -4.183949   -2.066156   -1.109013
H      -4.566243   -3.022780    0.326282
H      -3.069318   -4.978639   -0.453575
H      -2.668399   -4.093363   -1.932054
H      -1.377365   -4.659383   -0.861955
