21

C      -0.933589    1.132245    0.094184
C      -0.001720   -0.076190   -0.016094
C       0.746550   -0.085613   -1.342083
N       1.833018    0.898404   -1.529277
C       2.154621   -0.539638   -1.419932
C       2.872418   -1.010249   -0.172859
C       2.202937   -0.620574    1.138665
C       1.874912    0.797143    1.468288
N       0.810177   -0.177923    1.203286
H      -0.360903    2.062503    0.036382
H      -1.667369    1.132426   -0.718448
H      -1.468965    1.110459    1.047150
H      -0.621703   -0.985370   -0.022689
H       0.107380   -0.289284   -2.200561
H       1.877233    1.193356   -2.500586
H       2.466672   -1.041791   -2.333609
H       2.924002   -2.105873   -0.221505
H       3.910492   -0.653578   -0.177395
H       2.478654   -1.275592    1.964699
H       1.929888    1.138887    2.499863
H       2.098384    1.538928    0.710518
