16

C       0.038155    1.546816   -0.036791
C       0.030609    0.048425    0.013067
C       0.002913   -0.812497   -1.069282
O      -0.038022   -0.600613   -2.406774
N       0.014306   -2.097796   -0.631966
C       0.050667   -2.109160    0.761006
C       0.062709   -0.786534    1.164752
C       0.065573   -3.308599    1.491111
C       0.078410   -4.348496    2.103356
H       1.038309    1.970554    0.118232
H      -0.326010    1.926530   -0.999878
H      -0.615755    1.972585    0.731164
H       0.000087    0.347917   -2.565117
H      -0.007726   -2.910356   -1.223603
H       0.087642   -0.456474    2.192036
H       0.089613   -5.256522    2.652536
