18

C       0.053230    1.577100   -0.108220
N      -0.004970    0.129428    0.106458
C      -1.349574   -0.475293    0.033970
C      -2.159864   -0.096390    1.336501
N      -1.524029   -0.460800    2.581208
C      -2.124982   -0.097079   -1.159327
C      -2.760904    0.270400   -2.110749
C      -1.162289   -1.941047    0.040482
N      -1.024717   -3.087348    0.078261
H       1.105410    1.871605   -0.120605
H      -0.418338    1.909755   -1.043809
H      -0.424102    2.104400    0.722464
H       0.595903   -0.334516   -0.565884
H      -2.319411    0.985662    1.300845
H      -3.143621   -0.567152    1.267007
H      -1.509860   -1.471064    2.687682
H      -0.553711   -0.158587    2.563571
H      -3.323039    0.574227   -2.959851
