20

N      -0.105266    1.352377    0.121691
C       0.059152    0.007753   -0.063967
O       1.157967   -0.497638   -0.186777
C      -1.237065   -0.798598   -0.117993
C      -1.054730   -2.225546    0.411127
C      -2.282935   -3.083590    0.196255
C      -2.518833   -3.752384   -1.147920
C      -2.167416   -4.574637    0.068279
O      -0.887826   -5.124750    0.187506
H       0.709317    1.941702    0.065473
H      -1.012168    1.783486    0.145845
H      -2.036970   -0.276885    0.421846
H      -1.549778   -0.836631   -1.170527
H      -0.187520   -2.674190   -0.076604
H      -0.812832   -2.188224    1.480469
H      -3.176507   -2.735728    0.710285
H      -3.524147   -3.808570   -1.551529
H      -1.734739   -3.635911   -1.890031
H      -2.960700   -5.175750    0.513728
H      -0.805495   -5.830728   -0.461531
