14

O      -0.120861    1.378884    0.154348
C       0.023782    0.029140    0.012366
C      -1.044217   -1.036241    0.050935
C      -0.207893   -0.834444   -1.207547
C       0.953947   -1.823000   -0.894585
N       2.086288   -1.404000   -0.467511
C       1.109151   -0.918488    0.635952
C      -0.116346   -2.074429    0.719844
O       0.331689   -2.980152   -0.279909
H       0.614349    1.812585   -0.296090
H      -2.121858   -0.961714    0.094130
H      -0.569837   -0.534627   -2.176657
H       1.703175   -0.706797    1.518950
H      -0.348230   -2.570686    1.656562
