25

C      -0.547466    1.153713    0.356871
C      -0.206005   -0.300190    0.025284
C       0.608366   -0.461704   -1.263630
C       0.974210   -1.927881   -1.525137
C       1.835097   -2.138570   -2.772631
C       2.175844   -3.603021   -3.013702
O       2.975807   -3.680703   -4.184707
O      -0.160267    0.037036   -2.361647
C       0.433266    1.089398   -3.088368
H       0.358105    1.751983    0.510304
H      -1.120759    1.608792   -0.455504
H      -1.146322    1.220145    1.270332
H       0.355903   -0.752860    0.851775
H      -1.130365   -0.881503   -0.082201
H       1.535647    0.126676   -1.174760
H       1.494753   -2.318655   -0.640667
H       0.040774   -2.498594   -1.618517
H       1.310131   -1.754650   -3.653217
H       2.773991   -1.576616   -2.688001
H       2.710363   -4.011203   -2.139468
H       1.246824   -4.186148   -3.126026
H       3.182332   -4.605661   -4.346558
H       0.615700    1.975387   -2.461960
H       1.385829    0.791566   -3.550523
H      -0.266272    1.364618   -3.882856
