16

C      -0.747406    1.273472   -0.728836
C      -0.140132    0.070962   -0.089108
N       1.064150   -0.378760   -0.414639
N       1.196325   -1.456998    0.397557
C       0.097915   -1.610752    1.159209
C      -0.085137   -2.708511    2.169741
C       1.057590   -3.611655    2.253226
C       2.011144   -4.341117    2.303011
N      -0.773540   -0.660209    0.879594
H      -0.063236    1.690514   -1.469566
H      -1.690691    1.015655   -1.220428
H      -0.971060    2.039269    0.020476
H       2.029477   -2.022953    0.382289
H      -0.279882   -2.254518    3.149206
H      -0.992701   -3.270348    1.916613
H       2.842367   -4.999698    2.365097
