16

C      -0.056464    1.526711   -0.140126
C       0.024234    0.023962   -0.017407
C       1.318535   -0.701209   -0.187096
C       0.677707   -0.641201    1.201930
C       1.279996    0.143500    2.226256
C       1.780418    0.795630    3.115957
C       2.389786    1.595872    4.138773
O       2.430163    1.306311    5.314622
H       0.843041    2.006021    0.255373
H      -0.163358    1.819751   -1.189820
H      -0.915406    1.923465    0.410565
H      -0.859450   -0.507181   -0.360527
H       1.330434   -1.669080   -0.675099
H       2.215677   -0.109139   -0.328831
H       0.208221   -1.557586    1.546283
H       2.841255    2.537906    3.763135
