17

N      -0.431329    1.132000    0.166946
C      -0.519940   -0.121838    0.238686
O      -0.843724   -0.830151   -0.870515
C      -0.953595   -2.223264   -0.723766
C      -2.175036   -2.665529    0.080505
O      -2.867947   -1.876714    0.684822
C      -2.450446   -4.134007    0.100480
C      -2.736473   -4.734155    1.447104
N      -3.806977   -4.557704    0.480751
H      -0.167984    1.515083    1.072227
H      -0.341451   -0.746380    1.122708
H      -1.019003   -2.637296   -1.735058
H      -0.057168   -2.664674   -0.257774
H      -1.964551   -4.742502   -0.656915
H      -2.433350   -5.760606    1.631435
H      -2.687438   -4.063180    2.300179
H      -4.325355   -3.710554    0.717792
