13

O      -0.053473    1.314027    0.080768
C       0.048595   -0.027161   -0.025295
C       0.259088   -0.895100   -1.062404
O       0.470675   -0.503869   -2.363448
C      -0.088348   -1.260479   -3.353348
O       0.078178   -0.996978   -4.503386
N       0.287456   -2.189001   -0.627388
C       0.088938   -2.120718    0.669002
N      -0.056055   -0.823380    1.086760
H       0.085340    1.690746   -0.796229
H      -0.673069   -2.103427   -2.955177
H       0.044315   -2.955013    1.350286
H      -0.196877   -0.490728    2.026396
