21

C       0.180670    1.585629    0.123911
C      -0.052937    0.084801   -0.074241
C       0.663831   -0.521498   -1.294904
C       2.191304   -0.455318   -1.177569
C       0.179177   -1.969435   -1.499958
N       0.674199   -2.588118   -2.719774
C       1.488785   -3.677316   -2.735114
O       1.904982   -4.260251   -1.756430
H       1.231244    1.813391    0.326460
H      -0.117492    2.153007   -0.765145
H      -0.404532    1.962182    0.968546
H       0.261730   -0.458176    0.827546
H      -1.131545   -0.094924   -0.174486
H       0.359738    0.058289   -2.181202
H       2.673027   -0.924663   -2.039766
H       2.546538    0.577229   -1.121384
H       2.534931   -0.981588   -0.279673
H       0.519675   -2.607338   -0.679661
H      -0.918362   -1.990443   -1.504124
H       0.395335   -2.198809   -3.606688
H       1.737781   -3.984406   -3.771071
