17

C       0.025864    1.447543    0.165876
C      -0.165888   -0.056360    0.327280
O      -0.033536   -0.436436    1.698879
C      -1.532842   -0.567964   -0.239222
C      -1.790588   -0.018271   -1.569882
N      -1.959812    0.478822   -2.598378
C      -1.672291   -2.118824   -0.291220
N      -1.337506   -2.745097    0.865690
O      -2.092705   -2.683075   -1.277299
H       0.975132    1.742733    0.620468
H       0.031732    1.739169   -0.885813
H      -0.784033    1.998815    0.660660
H       0.637132   -0.589260   -0.192034
H      -0.525337    0.198035    2.233367
H      -2.318469   -0.194083    0.432988
H      -0.827559   -2.243687    1.579511
H      -1.336920   -3.752588    0.853421
