13

C      -0.035329    1.374995    0.046047
O       0.031666   -0.056746   -0.053074
C       0.636733   -0.556865   -1.112100
N       1.150248    0.209805   -2.025775
C       1.761386   -0.409582   -3.093144
O       2.291501    0.124730   -4.033139
N       1.724931   -1.827526   -3.010133
N       1.180556   -2.552919   -2.042389
N       0.622721   -1.953272   -1.068606
H       0.969299    1.802625    0.071954
H      -0.575888    1.791185   -0.806817
H      -0.566060    1.570782    0.976782
H       2.152102   -2.362915   -3.754843
