16

N      -0.040369   -1.162164   -0.007086
C      -0.048733   -0.005048    0.014741
C      -0.035958    1.430558    0.034094
C       0.506628    2.166126    1.277598
C       1.279574    2.167395    0.023695
C       2.718783    1.771538   -0.328389
C       2.446674    2.169044   -1.800873
C       1.870539    3.266376   -0.870321
O       3.109713    3.180703   -0.058448
H      -0.875081    1.893011   -0.476396
H      -0.028199    3.062351    1.572883
H       0.851245    1.548401    2.099441
H       3.341046    0.979216    0.084387
H       3.333099    2.470052   -2.359050
H       1.749896    1.558892   -2.379519
H       1.481616    4.257237   -1.103464
