18

C      -0.528389    1.386921    0.329785
C       0.272302    0.169732   -0.148424
C       0.978424   -0.537505    0.996301
O       0.164256   -1.286679    1.909521
C       1.131581   -2.006813    1.131528
C       0.594561   -3.029594    0.158689
O       0.251601   -4.224655    0.835896
C       1.997553    0.274723    1.653709
N       2.811608    0.933727    2.142389
H       0.121544    2.128683    0.803399
H      -1.031331    1.867541   -0.513412
H      -1.288560    1.086743    1.056630
H      -0.391186   -0.541810   -0.644388
H       1.028167    0.473997   -0.881753
H       1.980893   -2.361774    1.716514
H      -0.257088   -2.624422   -0.402079
H       1.378072   -3.297384   -0.558185
H      -0.451943   -4.012643    1.459564
