17

O       0.003939    0.614714   -1.528826
C       0.012950    0.132665   -0.191569
C      -1.326776   -0.540811    0.002761
C      -1.630180   -1.968739   -0.191775
C      -0.498505   -2.882429    0.271997
C      -0.654499   -2.207984    1.665685
C       0.493373   -1.570275    2.301195
N       1.405099   -1.073842    2.810813
N      -1.774261   -1.306546    1.188753
H       0.806598    1.126936   -1.664417
H       0.854087   -0.550838   -0.023197
H       0.111837    0.952021    0.535808
H      -2.134976    0.120858   -0.302492
H      -2.502651   -2.307388   -0.739606
H      -0.765795   -3.938699    0.300575
H       0.460441   -2.772343   -0.238510
H      -1.091980   -2.898866    2.390686
