21

C       0.108697    1.489424   -0.235214
C      -0.065014   -0.033387   -0.235634
C      -1.494250   -0.510168    0.089208
O      -1.867240   -0.120980    1.415834
C      -2.514895   -0.073160   -0.946905
C      -2.910367   -1.075071   -1.729013
C      -2.231686   -2.371414   -1.365031
C      -1.632740   -2.057948    0.029108
O      -0.395936   -2.693793    0.295170
H       1.142192    1.756971   -0.474178
H      -0.535949    1.977621   -0.973643
H      -0.107390    1.928619    0.746384
H       0.221258   -0.432210   -1.215253
H       0.607414   -0.489002    0.496311
H      -1.768449    0.833715    1.486661
H      -2.851695    0.955275   -1.022261
H      -3.620941   -0.991411   -2.544547
H      -2.914626   -3.229191   -1.350988
H      -1.423246   -2.619122   -2.066385
H      -2.371137   -2.311050    0.801477
H      -0.565593   -3.629595    0.435283
