17

O       0.027697    0.101964    0.406968
C      -0.006629    1.255183    0.077159
C      -1.279634    2.107595   -0.104644
C      -0.795903    3.335063   -0.891646
O      -1.409060    4.576253   -0.588660
C      -0.383777    5.542253   -0.323566
C       0.876817    4.736226   -0.106761
C       0.641808    3.475661   -0.445184
C       1.242082    2.127167   -0.241161
H      -2.082857    1.525470   -0.560007
H      -1.611748    2.428346    0.891021
H      -0.873199    3.132211   -1.974461
H      -0.296151    6.249847   -1.164926
H      -0.667727    6.124764    0.563106
H       1.784780    5.156304    0.306974
H       1.987225    2.057675    0.554827
H       1.701247    1.715147   -1.150802
