18

C      -0.015044    1.495163    0.078357
C       1.485394    1.846134   -0.066479
O       1.717562    1.988059   -1.470499
C       1.658862    0.672006   -1.943175
C       2.243888   -0.270097   -0.948225
C       0.743726   -0.346377   -1.249068
N      -0.005765    0.015696   -0.010908
C       1.002145   -0.268222    1.047460
C       2.180302    0.490517    0.385269
H      -0.445042    1.790563    1.039508
H      -0.593106    1.948998   -0.728220
H       1.828217    2.753851    0.430592
H       1.815803    0.601538   -3.013015
H       2.973521   -1.043533   -1.149321
H       0.315802   -1.144400   -1.845081
H       0.667082    0.123002    2.012901
H       1.191811   -1.339869    1.140689
H       3.121411    0.593777    0.923831
