19

C      -0.019084    1.501322    0.064843
C      -0.064568    0.012379   -0.039445
C      -0.065561   -0.753875   -1.142480
C      -0.093843   -2.189858   -0.723582
C       1.067874   -2.754647    0.215552
C       1.480075   -1.556595    1.077968
C       0.042132   -0.914721    1.159839
C      -0.734757   -2.200068    0.680069
O       0.043237   -3.349812    1.070197
H       0.896171    1.838357    0.568744
H      -0.057059    1.974486   -0.920411
H      -0.858061    1.882787    0.660559
H      -0.039510   -0.402058   -2.166992
H      -0.458800   -2.941006   -1.422191
H       1.820942   -3.458542   -0.136017
H       1.841205   -1.911682    2.045479
H       2.216004   -0.887667    0.626997
H      -0.228584   -0.495654    2.128650
H      -1.805963   -2.275437    0.870773
