18

O      -0.007431    2.421502   -0.013337
C       0.318234    1.641123    0.857134
N       1.480047    0.933040    0.881214
C       2.519936    1.142615   -0.105320
C       3.588695    2.159822    0.346482
O       4.434167    2.443082   -0.757194
C       4.196268    3.793918   -1.161582
C       2.944487    4.198963   -0.374323
O       3.037263    3.372577    0.784619
H      -0.328248    1.402110    1.724062
H       1.670303    0.364376    1.690678
H       3.012360    0.194516   -0.342893
H       2.036098    1.511955   -1.011109
H       4.185313    1.755039    1.175945
H       5.062142    4.413476   -0.895557
H       4.053626    3.828767   -2.245860
H       2.948263    5.241030   -0.049052
H       2.016414    3.991877   -0.920468
