19

C      -0.079548    1.443600   -0.220259
N       0.367477    0.087561    0.085512
C       0.746958   -0.736059   -0.960806
C       0.638667   -2.079601   -1.170032
C       1.341145   -2.352550   -2.399007
C       1.521527   -3.680153   -3.062938
C       1.806627   -1.160970   -2.853050
N       2.525866   -0.817588   -3.996918
O       1.441953   -0.146871   -1.961008
H       0.718472    1.978122   -0.738778
H      -0.981757    1.479831   -0.850263
H      -0.284877    1.964214    0.718093
H      -0.246483   -0.397836    0.724056
H       0.131037   -2.790734   -0.536851
H       0.558250   -4.132142   -3.328349
H       2.110591   -3.569024   -3.976241
H       2.036345   -4.390706   -2.405476
H       3.395835   -0.340013   -3.781887
H       1.998071   -0.227799   -4.633832
