16

C      -0.078980    1.526665    0.081412
C       0.062517    0.029843   -0.051117
C       0.668411   -0.659263   -1.237123
N       1.573879    0.121168   -2.032668
C       2.656031    0.446379   -1.238998
N       2.623419    0.048820   -0.017687
C       1.400840   -0.693447    0.147972
C       1.443064   -1.845660    1.006369
N       1.438248   -2.784646    1.681926
H       0.804040    2.057696   -0.277443
H      -0.942023    1.876904   -0.494198
H      -0.232671    1.802280    1.128715
H      -0.759546   -0.540534    0.372704
H       0.192806   -1.511751   -1.706130
H       1.691688   -0.073296   -3.014714
H       3.464154    1.041425   -1.650756
