20

C       0.105679    1.549964    0.148429
C      -0.088333    0.046728   -0.114277
C       0.702965   -0.449914   -1.287351
N       0.106898   -0.661686   -2.435751
O       1.105362   -1.092377   -3.307176
C       2.281027   -1.131961   -2.649657
C       3.461890   -1.580756   -3.435856
C       2.106154   -0.735874   -1.357134
C       3.115737   -0.633561   -0.257363
H       1.153008    1.791457    0.355114
H      -0.208279    2.135779   -0.720176
H      -0.487999    1.869523    1.010150
H       0.197251   -0.521878    0.779079
H      -1.145320   -0.161488   -0.303748
H       3.292721   -2.574006   -3.864429
H       3.665803   -0.895469   -4.265673
H       4.349951   -1.624090   -2.802260
H       3.303553    0.406318    0.034357
H       2.783252   -1.163737    0.642300
H       4.074564   -1.066416   -0.555467
