17

C      -0.667091    1.314184   -0.022658
C       0.181354    0.045706    0.015262
C       1.163356   -0.089192   -1.207250
C       2.326747   -0.770442   -0.567507
C       2.259718   -0.778025    0.789835
C       1.040185   -0.103935    1.327890
N       3.399320   -1.382154    1.239474
N       4.135881   -1.744113    0.305042
O       3.424156   -1.329048   -0.999773
H      -0.036948    2.210132    0.013342
H      -1.267740    1.363786   -0.936873
H      -1.353466    1.354670    0.829268
H      -0.484912   -0.823208   -0.024209
H       0.722974   -0.648396   -2.037511
H       1.459943    0.892062   -1.600411
H       1.271337    0.876972    1.763101
H       0.505471   -0.676403    2.091192
