15

O       0.025182   -0.022016   -0.004500
C       0.016186    1.208986    0.006765
O       0.875635    2.110603    0.013713
C      -1.416106    1.816198    0.014784
C      -2.546206    1.901141   -1.060667
C      -2.936216    2.927545    0.027592
C      -2.542904    1.880808    1.095104
N      -1.478043    3.392073    0.029730
H      -1.073441    3.799919    0.870866
H      -1.075956    3.815661   -0.804807
H      -2.268358    2.291451   -2.042733
H      -3.179679    1.020877   -1.135766
H      -3.726609    3.677623    0.035879
H      -3.176174    0.999269    1.155531
H      -2.262041    2.252535    2.083503
