18

O       0.109655   -0.077416   -0.227235
C       0.024754    1.119555   -0.069325
C      -1.227112    1.918168    0.298146
C      -0.779859    3.382592    0.466960
C      -0.752101    3.892462    1.924844
O       0.553794    3.621165    2.410857
C       1.423700    3.951157    1.345033
C       0.741719    3.406992    0.072529
N       1.045212    2.021229   -0.204712
H      -1.964744    1.790847   -0.499030
H      -1.663863    1.494830    1.206552
H      -1.363269    4.053223   -0.165334
H      -0.954014    4.975915    1.954891
H      -1.468227    3.388059    2.577897
H       1.547599    5.044458    1.262003
H       2.399296    3.499322    1.541474
H       0.951841    4.041532   -0.795595
H       1.970220    1.699213   -0.442983
