19

C      -0.421415    1.430688   -0.013243
C       0.202168    0.050992   -0.054532
O       1.500067    0.042655   -0.694210
C       2.040166   -0.820903    0.323567
C       0.791728   -0.631588    1.222765
C       1.050426    0.308147    2.400197
C       0.081775   -1.903515    1.675095
H       0.217814    2.150084    0.504140
H      -0.580388    1.792186   -1.034372
H      -1.395111    1.399069    0.487947
H      -0.479125   -0.637440   -0.580228
H       2.183079   -1.847827   -0.042562
H       2.993495   -0.447029    0.716472
H       1.597811    1.203762    2.092516
H       0.115113    0.627855    2.872734
H       1.649988   -0.199816    3.164157
H       0.673652   -2.440705    2.425057
H      -0.889596   -1.672809    2.127930
H      -0.092846   -2.583979    0.835422
