15

O      -0.060203    1.326061    0.000174
N       0.046878   -0.073284    0.004813
C      -1.113196   -0.620840    0.013472
C      -1.275263   -2.139778    0.018122
N      -2.714330   -2.309887   -0.214053
C      -3.327284   -1.083575   -0.081172
C      -4.792408   -0.994665   -0.024679
O      -5.509625   -1.970923    0.004285
C      -2.445299   -0.050470    0.007007
H       0.862574    1.600603   -0.014989
H      -0.678882   -2.623902   -0.760483
H      -0.974474   -2.561819    0.986444
H      -3.202189   -3.115797    0.146436
H      -5.196024    0.036696    0.015503
H      -2.680507    1.000724    0.025545
