20

C      -0.680364    1.204577   -0.069302
C       0.535292    0.283011    0.139905
C       1.092268   -0.229531   -1.106484
C       1.529586   -0.649246   -2.149790
C       2.092267   -1.123247   -3.369452
C       1.327556   -1.256290   -4.634732
N       1.773717   -2.502099   -4.000888
C       3.234421   -2.618168   -4.348744
C       3.592578   -1.285724   -3.646437
H      -0.410023    2.072491   -0.676779
H      -1.486615    0.672537   -0.581378
H      -1.058910    1.560825    0.893442
H       1.317323    0.824943    0.687573
H       0.250470   -0.560269    0.782669
H       0.253897   -1.110136   -4.574808
H       1.782289   -0.942680   -5.574350
H       3.661968   -3.498621   -3.866458
H       3.416296   -2.678325   -5.427302
H       4.058782   -0.492749   -4.238316
H       4.170203   -1.433856   -2.733323
