20

N      -0.371662   -0.844187   -0.636019
C      -0.179354    0.283579   -0.471244
C       0.085454    1.705210   -0.255771
C       1.541588    1.980397    0.194760
C       2.616900    1.570642   -0.855489
C       3.136119    2.859113   -1.476363
C       2.139711    3.823988   -2.069314
C       2.634081    4.028191   -0.658387
C       1.789270    3.491029    0.487790
H      -0.155491    2.241395   -1.179410
H      -0.611521    2.071046    0.507092
H       1.687859    1.400992    1.110223
H       3.443057    1.056226   -0.353610
H       2.216574    0.866250   -1.593077
H       4.140217    2.853695   -1.885864
H       2.507883    4.510594   -2.824200
H       1.117126    3.505021   -2.241621
H       3.265786    4.887208   -0.460928
H       0.848844    4.039725    0.619631
H       2.346034    3.597757    1.424879
