20

C      -0.133431    1.483073   -0.001610
C       0.017118   -0.032267    0.037562
C       1.164841   -0.622559   -0.828942
C       2.115424   -0.410541    0.372884
C       0.834449   -0.632317    1.232353
N       0.567060   -2.072020    1.304466
C       0.638095   -2.663407    0.180108
C       0.409985   -4.130728   -0.002728
O       0.934869   -2.036171   -0.998509
H       0.813848    2.009418    0.149307
H      -0.541165    1.808368   -0.965204
H      -0.822801    1.818117    0.780482
H      -0.954258   -0.510582   -0.120700
H       1.392104   -0.225504   -1.819010
H       2.934650   -1.120335    0.501361
H       2.491679    0.611596    0.416653
H       0.755758   -0.178311    2.220986
H      -0.410673   -4.303538   -0.706407
H       1.302304   -4.604926   -0.424129
H       0.172307   -4.583628    0.959070
