15

C      -0.083159    1.562959    0.141790
C       0.006615    0.044718   -0.008799
C       0.714837   -0.429804   -1.251128
N       1.181113    0.441299   -2.079021
O       1.821091   -0.043644   -3.201038
C       1.980453   -1.408027   -3.471535
O       2.551209   -1.705474   -4.475497
N       1.461918   -2.324747   -2.549250
C       0.871007   -1.849028   -1.513605
H       0.910986    2.015295    0.173331
H      -0.620015    2.011191   -0.697718
H      -0.609526    1.815211    1.065781
H       0.518783   -0.395802    0.857951
H      -0.998433   -0.399733   -0.005584
H       0.465154   -2.559503   -0.790542
