19

C      -0.031733    1.542192   -0.004000
C       0.030100    0.032320   -0.013698
C       0.903674   -0.790195   -1.008661
C       0.734672   -1.928283    0.033563
C      -0.777029   -2.188825    0.076742
C      -1.293695   -1.526815    1.336780
O      -0.214761   -1.113735    2.138421
C       0.714339   -0.807857    1.132751
C      -1.295523   -0.751388    0.037186
H       0.971102    1.982034    0.011631
H      -0.548907    1.926650   -0.890737
H      -0.571352    1.903683    0.878034
H       0.510507   -0.958049   -2.014749
H       1.932054   -0.418787   -1.066929
H       1.401945   -2.787560    0.083002
H      -1.259905   -3.029977   -0.401055
H      -2.175468   -1.831583    1.884150
H       1.656271   -0.454658    1.546241
H      -2.194233   -0.431575   -0.473246
