16

O      -0.424175    0.173384    0.258753
C       0.416498    0.783333   -0.355755
C       1.129216    1.984786    0.144344
C       2.584370    2.164930   -0.296704
C       1.517802    3.029784   -0.882276
O       0.722719    2.503677    1.373247
C       0.925796    1.668676    2.502017
C       2.341544    1.576928    2.903758
N       3.451626    1.507799    3.217003
H       0.734444    0.472145   -1.377063
H       3.240596    2.594629    0.449029
H       3.030261    1.387509   -0.907271
H       1.207797    2.870842   -1.909044
H       1.439274    4.050606   -0.527998
H       0.361980    2.128488    3.318365
H       0.525118    0.664695    2.334999
