21

C       0.365578    1.377041   -0.060245
C       0.053337   -0.087391   -0.068759
C      -0.166601   -0.857604   -1.136988
C      -0.519131   -2.281079   -0.787072
C      -0.287821   -2.347495    0.742419
C       1.024788   -3.027561    1.171353
O       1.453721   -2.336423    2.331708
C       1.228692   -0.957755    2.077471
C      -0.066297   -0.877254    1.218435
H       1.317730    1.582926    0.445109
H       0.426401    1.783525   -1.073345
H      -0.402429    1.939908    0.486485
H      -0.127151   -0.505271   -2.163421
H      -1.560663   -2.506510   -1.050991
H       0.093742   -3.013777   -1.329617
H      -1.126410   -2.814622    1.262743
H       0.915838   -4.083925    1.430479
H       1.775587   -2.941857    0.366163
H       1.151525   -0.450340    3.042677
H       2.080909   -0.526993    1.526647
H      -0.895320   -0.505944    1.832625
