19

O      -0.017994   -0.060339   -0.269245
C      -0.020830    1.127732   -0.070954
C      -1.312455    1.948255    0.032706
N      -1.632400    2.209823    1.438433
C      -0.839175    3.232598    2.119452
C       0.571712    2.731580    2.472863
C       1.526906    2.741775    1.292761
N       2.270306    1.496155    1.011006
C       1.248201    1.946223    0.069339
H      -1.199631    2.875177   -0.564127
H      -2.117154    1.347450   -0.397629
H      -2.614672    2.444773    1.505696
H      -0.762775    4.171665    1.537049
H      -1.368233    3.475291    3.046716
H       0.987020    3.349351    3.277190
H       0.489416    1.709277    2.854450
H       2.052086    3.682310    1.132040
H       3.200142    1.696931    0.652725
H       1.561247    2.381805   -0.881185
