20

C       0.061267    1.498253    0.797082
C      -0.072656    0.186888    0.011646
C       0.775265   -0.938991    0.631403
C      -1.500805   -0.258999   -0.133143
N      -1.918337   -1.320121   -0.803712
C      -3.274563   -1.299316   -0.635991
C      -4.184922   -2.322672   -1.226783
N      -3.720041   -0.289597    0.097847
N      -2.570152    0.362896    0.409503
H       1.109340    1.806428    0.840582
H      -0.502810    2.313425    0.331473
H      -0.286022    1.381343    1.830556
H       0.300548    0.357332   -1.006620
H       0.468831   -1.133010    1.665061
H       0.655356   -1.863171    0.062624
H       1.833846   -0.660989    0.636265
H      -3.928682   -3.323631   -0.865544
H      -5.220381   -2.103632   -0.960852
H      -4.093290   -2.338938   -2.317385
H      -2.606098    1.194054    0.974689
