20

C       0.062578    1.527710   -0.105330
N       0.005360    0.076744    0.066332
C      -1.329667   -0.494562    0.043255
C      -2.017433   -0.605188   -1.366707
N      -1.443172   -1.963147   -1.481166
C      -1.316044   -2.067933   -0.007434
C      -0.126052   -2.840734    0.525681
C      -2.152998    0.085325    1.103377
N      -2.831756    0.526617    1.928383
H       1.111194    1.834234   -0.136361
H      -0.431624    1.898593   -1.018496
H      -0.405557    2.017007    0.753669
H       0.543648   -0.377329   -0.664150
H      -3.112591   -0.567881   -1.298060
H      -1.676793    0.105958   -2.125938
H      -2.042374   -2.655331   -1.918044
H      -2.237360   -2.432018    0.471188
H       0.815544   -2.481762    0.105435
H      -0.072478   -2.759516    1.615459
H      -0.230325   -3.900414    0.268742
