20

C      -0.284308    1.494911   -0.043330
C       0.169157    0.031448    0.050184
C       0.808771   -0.481852   -1.219878
C      -0.028189   -1.010514   -2.361318
C       0.874354   -1.946549   -1.594580
C       2.252925   -2.165149   -2.186860
O       2.716783   -0.868462   -2.555537
C       2.162249    0.075463   -1.645465
H       0.561529    2.165618   -0.227803
H      -0.999696    1.631634   -0.860844
H      -0.765602    1.817959    0.884885
H       0.876882   -0.078872    0.883397
H      -0.693069   -0.600306    0.295745
H      -1.095832   -1.100846   -2.189954
H       0.249673   -0.749896   -3.378194
H       0.445826   -2.713061   -0.958665
H       2.918347   -2.631214   -1.441101
H       2.267008   -2.781399   -3.092380
H       2.114759    1.035885   -2.169652
H       2.804403    0.199501   -0.755804
