20

C      -0.253743    1.539067    0.012300
C      -0.039377    0.041194   -0.067452
C       0.925038   -0.580606   -1.079233
C       2.132386   -0.197047   -0.170941
C       2.694734   -1.625746   -0.130251
C       3.506383   -2.066003    1.077646
O       3.660894   -3.480217    1.131202
C       1.163223   -1.756863   -0.089393
N       1.021781   -0.541901    0.870471
H       0.679203    2.096537   -0.114477
H      -0.950648    1.868529   -0.765919
H      -0.680811    1.811107    0.983078
H      -0.993043   -0.490440    0.050316
H       0.894108   -0.620054   -2.174092
H       2.667305    0.752344   -0.122199
H       3.153333   -1.970336   -1.063389
H       4.522379   -1.661342    1.009329
H       3.050630   -1.672119    1.995694
H       2.798542   -3.858437    1.329092
H       0.529422   -2.636839    0.047764
