19

C       0.061996    1.512910    0.062808
C      -0.059402   -0.003859   -0.032310
O       0.749066   -0.666536    0.945814
C      -1.511061   -0.479252    0.071201
N      -1.543291   -1.925720    0.065542
C      -2.710087   -2.621372   -0.055082
N      -3.836517   -2.067981   -0.306309
C      -2.542941   -4.118521    0.097718
O      -3.461326   -4.888574    0.000794
H       1.110069    1.814360   -0.008634
H      -0.497024    2.002797   -0.740418
H      -0.338067    1.878202    1.016879
H       0.348013   -0.347768   -0.990045
H       0.532426   -0.291373    1.807600
H      -1.977953   -0.073846    0.984899
H      -2.106496   -0.109475   -0.769085
H      -0.748815   -2.366748    0.505822
H      -4.538274   -2.805171   -0.397534
H      -1.507841   -4.472281    0.308306
