15

N      -0.125211   -1.119389   -0.075369
C      -0.063859    0.034073   -0.027628
C       0.021965    1.473403   -0.007740
N       0.601994    2.082005    1.218468
C       1.341789    2.164809   -0.024422
C       2.781081    1.621541   -0.182296
C       3.101431    2.922957   -0.942614
O       2.213138    2.989150   -2.063224
C       1.722800    3.423742   -0.790686
H      -0.809401    1.976087   -0.494620
H       0.117024    2.953598    1.424053
H       3.278129    1.540721    0.786868
H       2.907707    0.700664   -0.754147
H       4.037092    3.463728   -1.010964
H       1.317997    4.427041   -0.712193
