19

C       0.282403    1.453700    0.048512
C      -0.036599   -0.017279    0.035291
N      -0.233305   -0.615838    1.145336
N      -0.079263   -0.668449   -1.217731
C      -0.246461   -2.122304   -1.295896
C       0.067635   -2.458036   -2.764598
C      -0.307016   -1.175536   -3.510378
C      -0.116019   -0.065105   -2.480544
O      -0.037240    1.116727   -2.717136
H       1.219507    1.663544   -0.472740
H      -0.488071    2.031575   -0.465393
H       0.352342    1.761126    1.091669
H      -0.456675   -1.603069    1.027358
H       0.435522   -2.620407   -0.600990
H      -1.271845   -2.407434   -1.023323
H       1.137450   -2.658840   -2.874017
H      -0.474217   -3.341906   -3.105470
H       0.287422   -0.968625   -4.401409
H      -1.361574   -1.168250   -3.811953
