13

C       0.093124   -1.130179    0.052535
C       0.002189    0.067506    0.026366
C      -0.091436    1.484625   -0.005493
N      -1.172314    2.170454   -0.012216
C      -0.770998    3.552265    0.006398
C       0.023875    3.998386    1.220757
C       0.752247    3.533352   -0.002707
O       1.100986    2.160250   -0.041054
H       0.164844   -2.189967    0.074452
H      -1.399511    4.252875   -0.528780
H       0.052382    5.065236    1.412390
H       0.014322    3.365323    2.101636
H       1.422873    4.157368   -0.578194
