17

C       0.032915    1.485231   -0.136208
C       0.004896    0.032155   -0.073553
C      -0.030548   -1.170079   -0.009832
C      -0.011170   -2.614632    0.024237
C       1.095959   -3.272303   -0.775297
O      -0.292950   -3.220683    1.292111
C      -1.272433   -3.381234    0.264199
C      -2.568433   -2.668781    0.482579
O      -3.606284   -3.026546   -0.013543
H       0.855414    1.837522   -0.767696
H      -0.900699    1.882761   -0.548483
H       0.168980    1.917590    0.860907
H       2.069301   -2.931022   -0.411106
H       1.043641   -4.358734   -0.674140
H       1.014180   -3.004174   -1.832326
H      -1.358437   -4.376311   -0.170876
H      -2.490879   -1.781726    1.144361
