19

C       0.006057    1.650624    0.067914
C       1.507704    1.311691    0.017761
C       1.176350    0.098135    0.952976
C      -0.083804    0.078932    0.036277
C      -1.384099   -0.643128   -0.104975
C      -1.658410   -0.786699   -1.410175
C      -0.549784   -0.246793   -2.314794
C       0.607492   -0.220231   -1.302908
O       1.656174    0.757817   -1.311356
H      -0.326780    2.060363    1.023537
H      -0.405407    2.218021   -0.768739
H       2.308398    2.022428    0.215231
H       1.842576   -0.767815    0.925101
H       0.989590    0.414902    1.980771
H      -2.042809   -0.918143    0.710009
H      -2.579223   -1.200814   -1.807438
H      -0.357450   -0.878948   -3.186644
H      -0.798069    0.755274   -2.687869
H       1.056932   -1.222605   -1.281685
