18

C      -0.159497    1.477512    0.071694
C      -0.034320   -0.026477   -0.094574
C       0.898448   -0.446768   -1.219525
N       0.984944   -1.891624   -1.212999
C       1.218786   -2.576686   -0.040282
N       1.631419   -3.782025   -0.054752
C       0.930729   -1.813147    1.235891
N       1.177944   -2.365779    2.348107
O       0.459986   -0.539919    1.160794
H       0.821245    1.932056    0.239678
H      -0.604891    1.922410   -0.822952
H      -0.797262    1.709932    0.927778
H      -1.020606   -0.474560   -0.275658
H       0.483541   -0.117450   -2.176954
H       1.875811    0.047006   -1.088862
H       1.356585   -2.355724   -2.029108
H       1.698507   -4.112801    0.908148
H       0.940725   -1.739894    3.118881
