13

N      -0.053921    1.345467    0.009317
C       0.066669   -0.010793    0.000319
O       1.141692   -0.578058   -0.014388
C      -1.262295   -0.768367    0.010177
C      -1.019285   -2.285206   -0.001113
C      -2.270026   -3.038896    0.007949
N      -3.268593   -3.620431    0.015300
H       0.785357    1.901323    0.003658
H      -0.944256    1.810881    0.021626
H      -1.840773   -0.481230    0.895432
H      -1.859529   -0.471171   -0.859160
H      -0.433556   -2.562137   -0.882349
H      -0.414870   -2.572142    0.864158
