17

N       0.198936    1.272136    0.134275
C       0.164094   -0.089031    0.068821
N       1.340856   -0.691451   -0.241953
H       1.402141   -1.693337   -0.201027
H       2.196062   -0.190704   -0.063489
C      -1.026231   -0.790149    0.323889
N      -2.102079    0.049360    0.388830
O      -3.223345   -0.447462    0.615375
C      -1.071991   -2.270640    0.472125
C      -1.971266   -2.971693    1.434019
N      -2.207505   -3.083507   -0.013785
H       0.819783    1.742647   -0.507975
H      -0.735508    1.662057    0.215586
H      -0.123035   -2.771540    0.282824
H      -1.614062   -3.877438    1.917181
H      -2.660299   -2.366224    2.010510
H      -2.965687   -2.438236   -0.230295
