17

C      -0.117806    1.459915   -0.117542
C      -0.020411   -0.052862   -0.058216
O      -1.349458   -0.585319   -0.071930
C      -1.420376   -1.957486    0.055156
C      -2.892634   -2.387186    0.069493
O      -3.117130   -2.895874   -1.244561
C      -1.935623   -3.057012   -1.889729
O      -1.810152   -3.518846   -2.976519
O      -0.907817   -2.628278   -1.102632
H       0.883355    1.900220   -0.107046
H      -0.625191    1.776125   -1.032944
H      -0.677294    1.846925    0.738638
H       0.541677   -0.447485   -0.912872
H       0.490120   -0.381089    0.860602
H      -0.830876   -2.314325    0.909285
H      -3.091071   -3.174699    0.802156
H      -3.546454   -1.532236    0.245235
