19

C      -0.368277    1.496254   -0.050615
C       0.021639    0.023336    0.006079
C       0.963033   -0.440630   -1.128324
C       1.466642   -1.818168   -0.674065
C       1.396800   -1.794083    0.856495
O       1.734898   -2.670981    1.600977
C       0.764535   -0.435451    1.291979
C       1.837650    0.462396    1.699297
C       2.746655    1.184524    2.014228
H       0.513358    2.137746    0.036990
H      -0.865013    1.724443   -0.999435
H      -1.056544    1.759637    0.759009
H      -0.891384   -0.586180   -0.046556
H       0.456021   -0.466313   -2.096272
H       1.799494    0.262106   -1.213407
H       0.810902   -2.628345   -1.016278
H       2.477386   -2.072626   -1.003353
H       0.089069   -0.610169    2.135306
H       3.542405    1.821499    2.312274
