17

N      -0.213638    1.438773    0.217658
C      -0.059231    0.003759    0.001221
C      -1.466433   -0.637512    0.108659
O      -2.061179   -0.284097    1.328854
C       0.571673   -0.317328   -1.361995
O       0.597189    0.482247   -2.263809
N       1.065319   -1.623418   -1.460819
C       1.634100   -2.246871   -2.573357
O       1.796492   -1.760767   -3.655849
H       0.655618    1.841771    0.551395
H      -0.392506    1.872101   -0.687190
H       0.554724   -0.410547    0.809783
H      -2.064951   -0.306923   -0.757456
H      -1.404795   -1.730559    0.069367
H      -1.873023    0.662969    1.421739
H       1.006044   -2.192925   -0.628403
H       1.926192   -3.285644   -2.316595
