18

C      -0.068527    1.450120    0.031873
C       0.024478   -0.035974    0.002934
C       0.024712   -0.903479   -1.025666
C       0.034171   -2.257361   -0.357557
N       1.022648   -2.001501    0.757416
C       0.035573   -0.946901    1.227363
C       0.136935   -0.403820    2.625783
C      -1.066285   -1.992222    0.748727
O      -2.058926   -2.486164    1.174486
H       0.788780    1.898420    0.548590
H      -0.107426    1.860269   -0.980828
H      -0.967367    1.785162    0.564964
H      -0.057894   -0.712138   -2.085691
H       0.123548   -3.171460   -0.939234
H       0.988614   -2.789826    1.412708
H       1.105640    0.079053    2.788858
H      -0.648936    0.334851    2.809301
H       0.019840   -1.200826    3.366351
