21

C      -0.016732    1.479216    0.011624
C       1.292600    0.708983   -0.011864
C      -0.013179   -0.016224    0.010270
C      -0.524518   -0.927383    1.124434
C      -2.038063   -0.982217    0.798013
C      -2.051515   -0.979440   -0.768449
C      -0.546765   -0.909971   -1.096023
O       0.032785   -2.188617   -0.781829
C       0.107608   -2.250676    0.657112
H      -0.287689    1.995508    0.927375
H      -0.316391    1.998830   -0.893416
H       1.868152    0.709456   -0.931950
H       1.897860    0.711913    0.889404
H      -0.276219   -0.647485    2.149389
H      -2.517520   -1.868712    1.222974
H      -2.550974   -0.104383    1.200370
H      -2.493118   -1.883922   -1.192686
H      -2.590407   -0.115416   -1.169044
H      -0.288716   -0.657873   -2.125710
H       1.158202   -2.339448    0.963992
H      -0.436378   -3.133056    1.016932
