18

C      -0.163239    1.441768   -0.092801
N      -0.100583   -0.006421    0.023729
C       0.602270   -0.694013   -0.977080
C       0.826974   -2.063096   -1.039609
C       0.449598   -3.187847   -0.132432
O       0.052354   -4.351456   -0.853495
N       1.514522   -2.268434   -2.199227
N       1.725572   -1.152500   -2.906043
C       1.186532   -0.183983   -2.163226
H       0.823566    1.932662   -0.119793
H      -0.697683    1.713479   -1.009040
H      -0.726152    1.843530    0.753378
H       0.174149   -0.292509    0.953166
H       1.295094   -3.519237    0.483499
H      -0.335215   -2.840224    0.556297
H      -0.705992   -4.105995   -1.395249
H       1.792268   -3.161486   -2.570540
H       1.225452    0.838099   -2.507343
