19

C      -0.048561    1.653961    0.041531
C      -0.000116    0.136441   -0.002710
C       0.811497   -0.627407   -1.115373
C       2.223860   -0.065893   -0.893901
O       2.278316   -0.052081    0.556451
C       1.008462   -0.624972    0.911639
C       0.863354   -1.772752   -0.089000
C       0.188604   -3.059672   -0.032260
O       1.623651   -2.949952   -0.163936
H       0.950476    2.083200    0.145292
H      -0.510517    2.062597   -0.863637
H      -0.643522    1.991919    0.896505
H      -1.000362   -0.297689    0.081059
H       0.455277   -0.751379   -2.136772
H       3.004760   -0.724029   -1.290138
H       2.368611    0.946734   -1.283832
H       0.926468   -0.717317    1.992866
H      -0.157168   -3.457817    0.920667
H      -0.328613   -3.442890   -0.910878
