20

C       0.411147    1.602261   -0.094021
C       0.016659    0.145840    0.084380
O       0.693432   -0.756578   -0.833021
C       1.260909   -1.568809    0.248725
C       0.691290   -2.983594    0.226907
C       2.784512   -1.549610    0.213422
C       0.606056   -0.626336    1.240709
N       0.620557   -0.591699    2.502250
O      -0.152921    0.481351    2.989599
H       1.491971    1.731340    0.007437
H       0.112520    1.947779   -1.088417
H      -0.088528    2.217384    0.659391
H      -1.074994    0.037545    0.007507
H       1.021316   -3.502491   -0.678711
H       1.035183   -3.548214    1.098903
H      -0.401348   -2.963905    0.235041
H       3.162695   -0.524644    0.213091
H       3.192062   -2.070715    1.085053
H       3.141715   -2.050703   -0.691991
H      -0.049052    0.390549    3.942925
