18

C      -0.132556    1.525807    0.035302
C       1.399127    1.511338   -0.226532
C       1.450782    0.142968    0.502733
C      -0.072850   -0.011465    0.254505
N       2.360604   -0.882141    0.041632
C       2.512430   -1.419239   -1.193661
C       3.517384   -2.343005   -1.042260
N       3.928770   -2.330156    0.255195
N       3.229826   -1.447960    0.909177
H      -0.382452    2.058319    0.956375
H      -0.775192    1.893987   -0.765627
H       1.622638    1.401059   -1.291460
H       2.010950    2.318561    0.180346
H       1.672566    0.263718    1.563640
H      -0.668125   -0.453025    1.055853
H      -0.269584   -0.556484   -0.673095
H       1.920632   -1.114672   -2.039831
H       3.959161   -3.001103   -1.772826
