16

C      -0.145981    1.579779    0.016242
C      -0.048215    0.049459    0.024495
C       1.185169   -0.501072   -0.753598
O       1.882336   -0.794724    0.469236
C       0.715880   -0.579088    1.256205
C       0.914744    0.311881    2.463486
O       1.928631    0.905972    2.710097
C      -1.326224   -0.573333   -0.288181
N      -2.341492   -1.069735   -0.532030
H       0.820744    2.012472    0.285298
H      -0.422739    1.930290   -0.981816
H      -0.900312    1.936801    0.722214
H       0.981443   -1.402383   -1.342188
H       1.714146    0.236287   -1.365285
H       0.252032   -1.520635    1.588949
H       0.014596    0.374444    3.117484
