21

C       0.214578    1.157326   -0.290810
O      -0.191602   -0.094338    0.226110
C       0.626363   -0.611344    1.232487
C       0.482080    0.072586    2.576865
C       0.805122   -2.099194    1.213164
C       0.440994   -2.846977   -0.072164
C       1.431843   -2.327779   -1.090506
C       2.287741   -1.451965   -0.559105
C       1.998927   -1.191055    0.877377
H       1.242472    1.116797   -0.675594
H      -0.464590    1.394714   -1.113218
H       0.149575    1.959083    0.458083
H      -0.562339    0.047627    2.905360
H       1.092547   -0.428218    3.333494
H       0.801529    1.119347    2.536361
H       0.747553   -2.627083    2.158695
H       0.523258   -3.933429    0.060238
H      -0.592145   -2.640136   -0.377389
H       1.406481   -2.628841   -2.131793
H       3.087677   -0.951523   -1.093103
H       2.812904   -1.016702    1.574443
