13

C      -0.090710   -1.142090    0.372800
C      -0.049561    0.023255    0.087755
C       0.019556    1.436613   -0.260173
C       1.426298    2.014649   -0.130465
C       1.629345    3.419141    0.278400
O       1.854224    2.345391    1.188444
C       2.441305    1.394250   -0.967727
N       3.231469    0.910937   -1.658108
H      -0.126713   -2.173638    0.623321
H      -0.329044    1.589227   -1.289439
H      -0.636728    2.022058    0.393207
H       2.518476    3.949764   -0.054041
H       0.752727    4.032855    0.479369
