17

O       0.231124    0.255133   -0.841749
C       0.185300    1.313100   -0.291408
O       1.182545    2.220168   -0.375884
C       0.949215    3.499743    0.245367
C       2.306212    4.217844    0.355121
C       2.305505    5.165166   -0.834510
C       1.975314    4.577977   -2.197754
C       0.892606    5.165649   -1.337001
O       0.109303    4.287723   -0.547396
H      -0.653091    1.651625    0.345991
H       0.443153    3.328018    1.200867
H       2.348757    4.787646    1.288168
H       3.120094    3.490166    0.357661
H       2.892287    6.073261   -0.773364
H       2.280203    5.155877   -3.063836
H       2.005445    3.503039   -2.329262
H       0.332731    6.045313   -1.627547
