17

C       0.057029    1.525505    0.025721
C       0.078107    0.014420    0.023337
C       1.352636   -0.744313   -0.220031
C       0.739916   -0.743411    1.162277
O       1.447619   -0.032860    2.148687
C       0.083850   -2.025233    1.609052
N       0.303623   -2.335624    2.919390
O      -0.594661   -2.702217    0.856467
H       0.966430    1.935683    0.474203
H      -0.015504    1.911027   -0.996409
H      -0.803197    1.913707    0.583507
H      -0.819254   -0.475047   -0.342475
H       1.303224   -1.671877   -0.777362
H       2.270178   -0.173807   -0.316769
H       0.820102    0.528360    2.618911
H       1.038839   -1.854623    3.410851
H       0.017722   -3.249179    3.231980
