20

C       0.003749    1.601612    0.157392
C       0.069369    0.091053    0.103167
C       1.294016   -0.678321   -0.348679
C       2.620913   -0.007291   -0.623673
O       3.153981    0.757934    0.474752
C       2.667058    0.545219    1.718501
N       1.646672   -0.103808    2.088331
C       0.847820   -0.765927    1.094417
C       0.212213   -2.032755    1.621822
H       0.952367    2.055546    0.448970
H      -0.267787    2.006380   -0.824083
H      -0.756792    1.930622    0.872962
H      -0.868685   -0.365760   -0.205984
H       1.125643   -1.545742   -0.981459
H       3.365348   -0.774011   -0.869805
H       2.570866    0.691616   -1.466163
H       3.290661    1.061279    2.446106
H      -0.400162   -1.810477    2.501509
H      -0.422283   -2.502161    0.863885
H       0.977919   -2.755636    1.923107
