17

O       0.350322    1.118232   -1.265678
C       0.192223    1.483157   -0.119266
N       1.138866    1.404733    0.852288
C       2.468251    0.867117    0.593913
C       3.407614    1.875708   -0.063980
C       3.917064    3.018166    0.841661
O       5.248002    2.464334    0.869072
C       4.893181    1.454011   -0.098136
H      -0.756447    1.916050    0.256090
H       0.919364    1.762496    1.767289
H       2.887769    0.525662    1.546199
H       2.355062   -0.004127   -0.058740
H       2.986886    2.188910   -1.020186
H       3.898200    4.018070    0.389489
H       3.474999    3.078590    1.845709
H       5.117858    0.441355    0.262000
H       5.400301    1.608229   -1.058762
