16

C      -0.018417    1.574075    0.063132
C      -0.002254    0.079117    0.037468
N      -0.054112   -0.552053   -1.112766
O      -0.021905   -1.925887   -0.794501
C       0.047949   -2.049555    0.530472
N       0.091709   -3.303210    1.100320
C       0.076528   -4.554857    0.504226
N       0.015206   -4.747578   -0.747104
C       0.064926   -0.821741    1.134013
H       0.885408    1.967390    0.539802
H      -0.074842    1.963385   -0.955051
H      -0.878066    1.946791    0.629622
H       0.143113   -3.296379    2.105275
H       0.124895   -5.334536    1.274349
H       0.016918   -5.745472   -0.946652
H       0.116711   -0.597339    2.186286
