16

O       0.911751    1.075128   -0.041881
C       0.384649   -0.168984   -0.093215
C       0.082981   -1.026868   -1.130799
C       0.249990   -0.774935   -2.608904
C       1.250599    0.245516   -2.926236
C       2.066001    1.099185   -3.164429
C      -0.463044   -2.205492   -0.525720
C      -0.477357   -2.023250    0.830925
N       0.046756   -0.769070    1.085164
H       1.256593    1.282934   -0.923746
H       0.540953   -1.708549   -3.108362
H      -0.702708   -0.479016   -3.073612
H       2.795827    1.831072   -3.409867
H      -0.807088   -3.084731   -1.050024
H      -0.807208   -2.659247    1.634896
H       0.195615   -0.350529    1.986490
