18

C      -0.007159    1.517239   -0.002071
C       0.061325    0.004333    0.022592
O       1.101487   -0.610317    0.050895
N      -1.169680   -0.671678    0.011021
C      -2.450986   -0.128753   -0.019934
C      -3.345459   -1.156140   -0.020030
C      -2.606459   -2.392914    0.011956
C      -3.185473   -3.774099    0.023069
C      -1.283016   -2.059256    0.030406
H       1.012889    1.898976    0.008260
H      -0.520575    1.874323   -0.899877
H      -0.548384    1.901410    0.867835
H      -2.604096    0.936362   -0.038898
H      -4.420779   -1.055280   -0.040672
H      -3.803066   -3.958403   -0.863700
H      -2.398081   -4.532315    0.044223
H      -3.827007   -3.934288    0.897479
H      -0.389529   -2.659111    0.055395
