21

C      -0.078732    1.578318   -0.148596
C       0.102315    0.066028   -0.037574
C       0.869228   -0.578288   -1.200183
O       1.176475   -1.888102   -0.753789
C       1.520087   -1.795323    0.636737
C       2.999445   -1.603326    0.857537
C       3.277981   -0.442758    1.445341
C       2.044614    0.365914    1.757868
C       0.868552   -0.485999    1.198246
H       0.873924    2.098581   -0.289295
H      -0.712409    1.825721   -1.007033
H      -0.558163    1.991943    0.744517
H      -0.891999   -0.397109   -0.020681
H       0.284529   -0.666099   -2.120571
H       1.784069   -0.003863   -1.425927
H       1.145214   -2.715053    1.099399
H       3.722032   -2.345255    0.537216
H       4.274339   -0.090081    1.692938
H       1.936490    0.523545    2.838570
H       2.102512    1.369240    1.320907
H       0.161994   -0.708688    2.000038
