16

C       0.096569    1.382379    0.002218
N      -0.095186   -0.050423    0.020202
C      -1.270095   -0.686979    0.005221
N      -2.412222    0.024877   -0.014590
H      -3.290658   -0.459986    0.034481
H      -2.420424    1.023296    0.093665
C      -1.258240   -2.098303   -0.004065
C      -2.251825   -3.091012   -0.005087
N      -1.643968   -4.269910   -0.010360
N      -0.297747   -4.026978   -0.011932
N      -0.051265   -2.748256   -0.008806
H       1.166642    1.589291   -0.020364
H      -0.354750    1.841604   -0.886403
H      -0.317708    1.862362    0.898595
H       0.693070   -0.689487    0.018141
H      -3.330420   -3.010097   -0.003132
