19

C      -0.016343    1.490083    0.056863
C      -0.027264    0.035203    0.019863
C      -0.040495   -1.168676   -0.003587
C      -0.062872   -2.634321   -0.064433
O      -1.379022   -3.151263   -0.194542
C       0.814581   -3.153392   -1.214233
C       0.843372   -4.680341   -1.437821
C       0.268051   -4.343623   -2.826024
O       0.150330   -2.940990   -2.485536
H       1.001251    1.881371   -0.051163
H      -0.619775    1.910863   -0.754870
H      -0.419733    1.868629    1.002446
H       0.330556   -3.047746    0.873595
H      -1.660036   -2.891237   -1.082543
H       1.797223   -2.666897   -1.189434
H       1.826830   -5.150729   -1.418919
H       0.153491   -5.221845   -0.790042
H       0.958370   -4.492939   -3.665072
H      -0.702522   -4.784728   -3.077311
