22

C      -0.054010    1.519543   -0.271433
C      -0.011366    0.041056    0.115081
O       0.612962   -0.120201    1.391547
C      -1.389211   -0.655696    0.082778
C      -2.100707   -0.503480   -1.267409
C      -1.218730   -2.140853    0.462959
N      -2.475283   -2.829834    0.718740
C      -3.018767   -3.743226   -0.128446
O      -2.558680   -4.066902   -1.203506
H       0.937356    1.960359   -0.136563
H      -0.355654    1.663330   -1.311818
H      -0.763125    2.069041    0.361735
H       0.656335   -0.487200   -0.578759
H       0.148198    0.449305    2.014967
H      -2.007697   -0.177784    0.860753
H      -2.370726    0.535998   -1.471114
H      -1.465130   -0.858686   -2.086457
H      -3.018310   -1.096412   -1.290232
H      -0.733143   -2.681578   -0.354341
H      -0.580395   -2.212052    1.346952
H      -2.949909   -2.661579    1.591545
H      -3.955388   -4.173200    0.281029
