17

C       0.262836    1.449698   -0.075256
C       0.055853   -0.030149   -0.001317
C      -0.098963   -0.919705   -1.030612
O      -0.285830   -2.165974   -0.560479
N      -0.261779   -2.131221    0.841668
C      -0.055689   -0.871005    1.137834
N      -0.172929   -0.731950   -2.400922
C       1.048906   -0.456536   -3.169544
C       0.346171   -1.762280   -3.296674
H       1.314769    1.732317    0.053604
H      -0.067494    1.837649   -1.042903
H      -0.307786    1.967904    0.701856
H      -0.000023   -0.587589    2.180998
H       0.944079    0.302427   -3.938064
H       1.988428   -0.443013   -2.623705
H       0.808432   -2.632755   -2.841898
H      -0.273696   -1.965459   -4.164028
