16

C       0.014169    1.497813    0.091944
C       1.317883    0.742226   -0.013134
N       2.059609    0.379102    1.189444
C       1.200325   -0.405136    1.976862
C       1.151452   -1.032545    3.178227
O      -0.018001   -1.760412    3.245601
C      -0.697456   -1.573580    2.077766
C       0.001501   -0.742264    1.268795
C      -0.003497   -0.021744   -0.024792
H      -0.265431    1.935307    1.044344
H      -0.296726    2.061555   -0.781264
H       1.918870    0.851188   -0.909186
H       2.520867    1.149585    1.655512
H       1.787278   -1.087842    4.044049
H      -1.637570   -2.093509    1.999076
H      -0.387353   -0.477809   -0.928966
