15

C       0.004943    1.398529    0.021574
O      -0.008447   -0.010471   -0.033438
C       0.639425   -0.590170    1.076731
C       0.601849   -2.042817    0.982059
C       0.584102   -3.246330    0.928124
C       0.525972   -4.695883    0.797728
N       1.140288   -5.364560    1.817840
O      -0.028396   -5.250982   -0.130060
H       1.031529    1.797988    0.024135
H      -0.513520    1.758577   -0.869144
H      -0.514460    1.777833    0.915867
H       1.690539   -0.255127    1.135756
H       0.158986   -0.273914    2.019976
H       1.653491   -4.879784    2.532807
H       1.187620   -6.368945    1.765774
