18

C      -0.083610    1.431275    0.035974
N      -0.017996   -0.004254   -0.088186
C      -1.041524   -1.055988   -0.044111
C      -2.011702   -1.093930   -1.235265
C      -2.972490    0.003246   -1.231755
C      -3.761125    0.910054   -1.201611
C       0.121593   -2.090241   -0.070596
C       1.057291   -0.859808   -0.072179
O       2.244020   -0.661588   -0.049958
H       0.943701    1.803644    0.041579
H      -0.627358    1.883923   -0.798549
H      -0.575214    1.729057    0.970427
H      -1.611471   -1.050802    0.893036
H      -1.430829   -1.083106   -2.166162
H      -2.549511   -2.050639   -1.210057
H      -4.462050    1.707702   -1.187426
H       0.210773   -2.722776    0.814032
H       0.178556   -2.707017   -0.970354
