17

O      -0.078280    1.322347    0.052940
C       0.042530   -0.068044   -0.007099
C       1.031446   -0.706910    0.981070
O       1.320187   -2.002221    0.443227
C       0.528347   -2.153790   -0.726258
C      -0.993313   -2.184668   -0.526513
C      -1.216251   -1.073081   -1.528817
C      -1.323270   -0.759152   -0.060544
C       0.314589   -0.770264   -1.386442
H       0.795692    1.708037   -0.076567
H       1.964331   -0.126224    1.052781
H       0.605424   -0.794384    1.988534
H       0.942912   -2.961008   -1.330443
H      -1.632948   -3.023296   -0.284618
H      -1.917949   -0.978151   -2.342116
H      -2.197589   -0.536622    0.536912
H       0.992412   -0.347647   -2.124799
