23

C      -0.092556    1.534388    0.066989
C       0.074178    0.010580    0.005828
C       0.737027   -0.503009   -1.256714
C       0.068697   -0.425595   -2.667200
C       1.068786   -1.563971   -3.015585
C       2.422620   -0.837695   -2.909667
C       2.177050   -0.040008   -1.584845
C       0.835385   -2.037284   -1.552267
O       1.749232   -2.860801   -0.877711
H       0.873987    2.048028    0.051443
H      -0.678457    1.904400   -0.781468
H      -0.610269    1.834357    0.983306
H       0.659153   -0.329596    0.871128
H      -0.911185   -0.463494    0.103475
H      -0.972698   -0.757364   -2.659212
H       0.160967    0.510888   -3.223641
H       0.917858   -2.228030   -3.866898
H       3.269037   -1.530675   -2.845466
H       2.609102   -0.183888   -3.765787
H       2.242375    1.040896   -1.732126
H       2.883918   -0.298747   -0.787899
H      -0.138900   -2.519410   -1.436255
H       2.634933   -2.500556   -0.985984
