10

O      -0.035343   -0.054001    0.002734
C       0.026623    1.149467    0.009349
N      -1.173487    1.919826    0.029162
C      -1.167726    3.263876    0.036252
N      -0.074828    3.968219    0.025449
C       1.069014    3.207330    0.006019
N       1.185031    1.912630   -0.002506
H      -2.037730    1.393724    0.037759
H      -2.136479    3.759252    0.051754
H       1.993349    3.782967   -0.003456
