19

C       0.358698    1.606466    0.093613
C      -0.099074    0.181525   -0.252161
N       0.651920   -0.367102   -1.369960
C       1.726491   -1.008492   -1.127379
N       2.307034   -1.317277    0.081643
C       2.532272   -1.588077   -2.274864
O       3.607536   -2.120590   -2.103747
O       1.941972   -1.446441   -3.458041
C       2.676449   -1.971179   -4.571419
H       1.400107    1.623590    0.432934
H       0.287549    2.249803   -0.787641
H      -0.264767    2.031351    0.886536
H      -0.047168   -0.457682    0.645028
H      -1.153129    0.213849   -0.548995
H       2.101123   -0.744667    0.881341
H       3.242352   -1.690356    0.017516
H       2.060452   -1.773395   -5.448041
H       3.645658   -1.474094   -4.661983
H       2.841888   -3.044892   -4.451405
