19

C      -0.226571    0.867372   -0.481667
O       0.137356   -0.469056   -0.203342
C       0.818916   -0.660054    1.042147
C      -0.145117   -0.569181    2.227019
C       1.497756   -2.035152    0.982573
C       2.691864   -2.142237    0.029899
N       2.417703   -1.806560   -1.262355
O       3.783625   -2.530116    0.401161
H       0.645077    1.538462   -0.452107
H      -0.650527    0.880961   -1.488783
H      -0.982706    1.248990    0.216999
H       1.590449    0.121213    1.142304
H       0.396759   -0.710650    3.166725
H      -0.638058    0.405611    2.274625
H      -0.916258   -1.342091    2.150190
H       1.873755   -2.300774    1.971897
H       0.739410   -2.774868    0.697792
H       1.546945   -1.346044   -1.478022
H       3.184305   -1.779744   -1.914573
