22

C       0.307348    0.812452    0.758895
C      -0.358841    0.431925   -0.566193
N      -1.612811   -0.285019   -0.392362
C      -1.679618   -1.648227   -0.419292
O      -0.697501   -2.342377   -0.644835
C      -3.039475   -2.254878   -0.170116
C      -4.223820   -1.347677    0.101957
C      -3.283730   -3.546056   -0.936087
C      -2.991203   -3.604322    0.529598
H       1.241424    1.353610    0.576247
H      -0.342508    1.455621    1.362238
H       0.537286   -0.084996    1.339734
H      -0.551435    1.327392   -1.168122
H       0.296073   -0.226594   -1.140324
H      -2.430467    0.241045   -0.136644
H      -4.418305   -0.665893   -0.734748
H      -5.131190   -1.940006    0.250187
H      -4.082524   -0.748318    1.010012
H      -4.297270   -3.731218   -1.275184
H      -2.495639   -3.857871   -1.610194
H      -2.009979   -3.955698    0.824211
H      -3.799772   -3.831668    1.216032
