23

C      -0.267010    0.836764    1.353477
C      -0.210525   -0.078736    0.142518
O      -1.420165   -0.805724    0.068925
C      -1.477135   -1.688348   -1.028830
C      -2.827578   -2.392667   -1.011284
O      -2.882297   -3.205156   -2.170523
C      -3.020556   -3.241303    0.240804
O      -4.251050   -3.925113    0.078387
C      -4.524097   -4.838670    1.114796
H       0.657978    1.414885    1.437934
H      -1.105935    1.533348    1.269036
H      -0.397000    0.253767    2.269803
H      -0.065610    0.507441   -0.780635
H       0.644789   -0.771429    0.219398
H      -1.368372   -1.148443   -1.982745
H      -0.668157   -2.436659   -0.981426
H      -3.621148   -1.628410   -1.031038
H      -3.618718   -3.811609   -2.025523
H      -2.192642   -3.964702    0.332467
H      -3.030860   -2.609266    1.139601
H      -5.485424   -5.308869    0.893643
H      -3.751120   -5.619967    1.183134
H      -4.590611   -4.334984    2.091176
