16

N      -0.140357    1.322588   -0.084768
C      -0.000945    0.082825    0.102078
O       1.209879   -0.495054    0.372206
C       1.335076   -1.888952    0.744806
C       0.143295   -2.410260    1.512524
C      -1.018503   -1.942257    1.095361
C      -2.445547   -1.647526    1.474120
O      -2.434292   -0.505993    0.567739
C      -1.148908   -0.897552    0.030930
H       0.754376    1.803167    0.031670
H       1.518667   -2.472518   -0.167948
H       2.244069   -1.931911    1.349796
H       0.292284   -3.052166    2.373288
H      -3.188672   -2.395871    1.168276
H      -2.629931   -1.356772    2.514391
H      -1.250301   -1.269618   -1.000253
