12

O      -0.049065   -0.041401   -0.000858
C      -0.022276    1.149076    0.008775
N       1.168746    1.920069    0.002690
C       1.275031    3.275544    0.012875
C       2.623933    3.520934    0.000586
C       3.304507    4.825192    0.004112
O       4.498823    4.979627   -0.007439
N       3.279087    2.301710   -0.016445
N       2.427168    1.347994   -0.015048
H      -0.909368    1.806753    0.023386
H       0.416351    3.926810    0.027329
H       2.602303    5.688325    0.018467
