21

C      -0.170530    1.585037   -0.034503
C      -0.011931    0.068133    0.030121
C      -1.376219   -0.625711    0.060103
O       0.712072   -0.391297   -1.148853
C       1.792461   -1.167313   -0.641606
C       2.904847   -0.220188   -0.150561
C       2.270873    0.262154    1.190373
C       0.920515   -0.481737    1.148591
O       1.298521   -1.739863    0.556298
H       0.783497    2.086323   -0.208856
H      -0.841247    1.852419   -0.856399
H      -0.606105    1.972149    0.893104
H      -1.904048   -0.440998   -0.879980
H      -1.250117   -1.703546    0.179993
H      -1.993429   -0.244960    0.881335
H       2.065506   -1.938658   -1.361775
H       3.841802   -0.759514    0.009559
H       3.081272    0.584261   -0.866863
H       2.849304   -0.081819    2.050428
H       2.171494    1.345613    1.263825
H       0.431793   -0.651141    2.107489
