20

C      -0.311601    1.505132   -0.012654
C       0.092900    0.031244    0.003825
C       0.947624   -0.376953   -1.215042
C       1.196148   -1.875749   -1.168926
C       2.545710   -2.446272   -0.787842
C       1.421558   -2.431455    0.207556
O       1.520127   -1.527619    1.284429
C       0.827897   -0.341255    1.277057
N       0.846502    0.411097    2.294649
H       0.571313    2.150946    0.000039
H      -0.889227    1.725298   -0.916467
H      -0.911294    1.756614    0.863005
H      -0.818791   -0.584305   -0.027833
H       0.429579   -0.100639   -2.137995
H       1.888739    0.184945   -1.204228
H       0.579592   -2.476705   -1.829946
H       2.847333   -3.399041   -1.208387
H       3.354878   -1.744370   -0.615191
H       0.958973   -3.366316    0.508319
H       1.395385   -0.023465    3.039609
