16

C      -0.076618    1.495377   -0.006002
C       0.021175   -0.016619    0.027514
O       1.089453   -0.600045    0.065533
C      -1.248066   -0.764243    0.010910
C      -1.376864   -2.129858    0.019709
N      -2.732119   -2.367777   -0.002823
C      -3.359367   -1.146480   -0.019289
N      -4.741681   -1.037593   -0.122564
N      -2.500594   -0.160577   -0.006342
H       0.926374    1.923064    0.007599
H      -0.617059    1.820687   -0.900728
H      -0.656430    1.856748    0.849297
H      -0.644368   -2.917650    0.046460
H      -3.178699   -3.266455   -0.079587
H      -5.250380   -1.573380    0.570728
H      -5.012552   -0.063489   -0.073125
