25

C      -0.067727    1.562195    0.126129
C      -0.013743    0.036340   -0.003760
C       0.729091   -0.477259   -1.246910
C       2.209719   -0.055825   -1.274216
C       3.003016   -0.794474   -2.320960
C       2.560434   -1.876584   -2.959151
C       1.227697   -2.531050   -2.683732
C       1.349316   -4.062687   -2.678232
C       0.627569   -2.005445   -1.369749
H       0.928578    1.998239    0.248695
H      -0.521989    2.018173   -0.761043
H      -0.664168    1.860643    0.994044
H       0.453898   -0.392016    0.893951
H      -1.038823   -0.356075   -0.025650
H       0.244542   -0.039916   -2.133450
H       2.297075    1.023349   -1.451089
H       2.661129   -0.223842   -0.282950
H       3.986986   -0.395722   -2.559109
H       3.181607   -2.342912   -3.722172
H       0.541754   -2.264219   -3.504298
H       2.033330   -4.397341   -1.890397
H       0.375978   -4.533182   -2.502715
H       1.733974   -4.433821   -3.634218
H       1.159862   -2.467488   -0.525447
H      -0.419359   -2.322785   -1.287842
