17

N       0.298093   -1.145836    0.344479
C       0.120830   -0.010613    0.221798
C      -0.124773    1.442048    0.063775
C      -0.762209    2.052865    1.327128
C       0.474496    2.347026    2.163202
C       0.418225    2.939158    3.516842
N       0.835302    1.536507    3.333437
C       1.580895    2.611236    1.145337
O       1.080898    2.159656   -0.125922
H      -0.737905    1.581143   -0.831554
H      -1.273259    2.978212    1.042488
H      -1.478951    1.393139    1.820602
H       1.205255    3.609358    3.853171
H      -0.561186    3.148583    3.941142
H       0.080671    0.902110    3.584247
H       1.817372    3.675540    1.039743
H       2.488475    2.063819    1.419336
