17

C      -0.042901    1.544125    0.045204
C       0.100447    0.054793    0.001475
N      -0.814009   -0.855819    0.717966
C       0.635577   -0.938771    0.995482
C       1.254153   -1.802740   -0.128954
N       0.592531   -3.064979   -0.445027
C      -0.201156   -2.791230   -1.397330
O      -0.225924   -1.543330   -1.951547
C       0.690501   -0.774846   -1.159737
H       0.859062    2.039694   -0.329714
H      -0.887166    1.877403   -0.569414
H      -0.214779    1.891946    1.069676
H      -1.236777   -0.321557    1.476312
H       1.021219   -0.783642    1.996156
H       2.338348   -1.905898   -0.056773
H      -0.884284   -3.490158   -1.866844
H       1.377314   -0.235725   -1.814013
