17

N       0.163113    1.485505   -0.053086
C       0.025694    0.029621    0.006576
C       0.652404   -0.608104   -1.252016
C       0.021398   -0.147388   -2.481640
C      -0.514602    0.266791   -3.475071
C       0.812426   -0.435755    1.262148
O       2.114300    0.089205    1.251906
C       0.071271   -0.027596    2.480999
N      -0.524390    0.318053    3.409166
H      -0.062185    1.818947   -0.985092
H      -0.477374    1.932602    0.595668
H      -1.015284   -0.312447    0.092580
H       1.722676   -0.373567   -1.264431
H       0.566679   -1.698405   -1.175264
H      -0.978860    0.610962   -4.366310
H       0.891581   -1.528477    1.270385
H       2.000790    0.996923    0.917677
