21

C       0.024197    1.502902   -0.201322
C       1.546093    1.523572   -0.037264
C       1.938576    1.015898    1.337630
C       1.156551    1.316906    2.562775
C       0.173243    0.571775    3.070371
C      -0.274210   -0.757628    2.508369
C      -0.879103   -0.688424    1.093529
C       0.036029   -0.049619    0.034451
C       1.558968    0.024065    0.262679
H      -0.538995    2.095774    0.525628
H      -0.309846    1.767462   -1.206906
H       2.237093    2.100076   -0.640513
H       3.017639    1.076570    1.478822
H       1.418432    2.249936    3.060827
H      -0.341387    0.930541    3.959018
H       0.584217   -1.440820    2.479385
H      -1.003911   -1.216136    3.183902
H      -1.135493   -1.710711    0.788646
H      -1.826114   -0.134199    1.120335
H      -0.153345   -0.534329   -0.927977
H       2.270159   -0.723578   -0.071119
