18

C      -0.177182    1.527842   -0.075660
C      -0.018814    0.042884    0.053061
O      -0.644081   -0.683316   -1.013773
C      -1.103091   -1.830801   -0.458746
N      -0.946413   -2.017288    0.791437
C      -0.226970   -0.852771    1.266525
C       1.166557   -0.647828    0.687729
C       1.927185   -1.803603    0.061407
O       2.075009   -2.897557    0.948869
H       0.341535    1.903799   -0.963597
H      -1.233607    1.803013   -0.151107
H       0.248602    2.024758    0.800068
H      -1.581910   -2.513165   -1.150660
H      -0.461191   -0.511995    2.267988
H       1.770225    0.023917    1.291798
H       1.456174   -2.111869   -0.882370
H       2.940347   -1.474116   -0.188892
H       1.183075   -3.189723    1.174492
