19

C       0.326126    1.357291    0.151944
C      -0.025865   -0.104814   -0.034328
C      -1.444500   -0.484332    0.348322
O      -1.676363   -0.239686    1.722358
C       0.716496   -0.902463   -1.068331
N       0.939126   -1.131664    0.350875
C       2.106119   -0.858669    1.072138
N       3.254727   -1.349972    0.492897
O       2.085913   -0.272040    2.135636
H       1.372242    1.556261   -0.092597
H      -0.304078    1.972166   -0.499196
H       0.153023    1.660006    1.186067
H      -2.168542    0.126340   -0.202395
H      -1.618583   -1.539518    0.087798
H      -0.940530   -0.636041    2.206270
H       0.226085   -1.711499   -1.605246
H       1.490889   -0.382149   -1.628337
H       3.172003   -2.076656   -0.199961
H       4.043915   -1.420289    1.116128
