17

C       0.045766    1.382794   -0.315268
C      -0.012082   -0.026734    0.285330
C      -1.385588   -0.652151    0.154795
C      -1.898983   -1.302566   -1.112232
O      -0.930974   -1.718770   -2.053818
C      -0.159428   -2.709143   -1.517322
O       0.743395   -3.243951   -2.072379
O      -0.559040   -2.974295   -0.239255
C      -1.646768   -2.141321    0.104346
H       1.039237    1.821094   -0.183769
H      -0.173762    1.359813   -1.387078
H      -0.680009    2.049660    0.162652
H       0.743996   -0.657706   -0.190492
H       0.251857    0.006096    1.349019
H      -2.176549   -0.120965    0.681941
H      -2.859182   -1.084949   -1.560858
H      -2.389572   -2.644754    0.708925
