16

C      -0.068684    1.583361    0.048664
C       0.024996    0.065467   -0.020246
C       1.126285   -0.596791   -0.909385
O       1.322285   -0.632452   -2.087450
C       1.722311   -1.304446    0.301251
O       2.012673   -0.233861    1.234459
C       0.666091   -0.702112    1.162159
C       0.010930   -1.226068    2.397874
H       0.868760    2.005847    0.418683
H      -0.262334    1.995699   -0.946054
H      -0.880910    1.904005    0.709181
H      -0.934713   -0.381617   -0.312092
H       2.297285   -2.218584    0.394639
H      -0.325258   -0.401648    3.036110
H      -0.863803   -1.832644    2.143538
H       0.711345   -1.837247    2.972604
