22

C      -0.266017    1.634332   -0.204334
C       0.067607    0.147815    0.021367
C       0.762202   -0.493796   -1.146164
C       2.031830   -0.918512   -1.224440
C       3.097119   -0.875427   -0.172794
C       2.323898   -1.559351   -2.567326
C       1.112613   -1.155466   -3.438259
C       0.002598   -0.790354   -2.426823
H       0.645953    2.217651   -0.365715
H      -0.908439    1.773376   -1.079461
H      -0.788899    2.052785    0.661578
H       0.675247    0.052547    0.927272
H      -0.867294   -0.394566    0.222731
H       3.461417   -1.885351    0.058678
H       3.969925   -0.306986   -0.520056
H       2.754189   -0.421759    0.760260
H       3.279045   -1.228049   -2.993855
H       2.406435   -2.651542   -2.457190
H       1.369823   -0.271056   -4.030138
H       0.810743   -1.936386   -4.141199
H      -0.695657   -1.625974   -2.265016
H      -0.611638    0.051122   -2.768285
