19

C       0.039112    1.509651    0.083321
C      -0.127887    0.008410    0.235849
O       0.977107   -0.487946    0.986264
C       0.927444   -1.868311    1.202496
C       2.081610   -2.440605    2.023098
C       2.051995   -1.867997    3.393019
C       1.091096   -3.012199    3.079413
C      -0.047684   -2.464367    2.279115
O      -1.241972   -2.566624    2.332651
H       0.978755    1.742734   -0.425657
H      -0.786640    1.925365   -0.501600
H       0.049454    1.996788    1.062524
H      -1.069950   -0.234666    0.745279
H      -0.153388   -0.483599   -0.750813
H       0.773121   -2.418248    0.258276
H       2.943536   -2.947167    1.610762
H       2.867192   -2.151631    4.050208
H       1.672424   -0.864896    3.552335
H       1.119267   -3.943166    3.630767
