25

C       0.021782    1.526387    0.150205
C       0.083478    0.015080   -0.002000
O       0.671404   -0.524229    1.163994
C       0.754042   -1.946250    1.206178
C       1.981938   -2.428129    0.425449
C       0.762528   -2.333714    2.697393
C      -0.511918   -1.848867    3.400926
C       0.954379   -3.839602    2.897015
O       0.959527   -4.103089    4.293895
H       1.026400    1.939772    0.277114
H      -0.431983    1.981195   -0.735567
H      -0.573099    1.800047    1.026258
H      -0.928601   -0.400681   -0.142384
H       0.665178   -0.248310   -0.900094
H      -0.154560   -2.369451    0.742303
H       2.903012   -2.113426    0.926740
H       1.995249   -3.517085    0.323221
H       1.985681   -2.008680   -0.584634
H       1.625971   -1.830316    3.153321
H      -1.398985   -2.337292    2.977212
H      -0.475561   -2.089214    4.464668
H      -0.626326   -0.770842    3.278216
H       0.135739   -4.384856    2.395066
H       1.898497   -4.170911    2.442500
H       1.082743   -5.048178    4.418787
