16

C       0.016702    1.548351    0.209098
C      -0.012413    0.057475    0.026127
C      -1.129500   -0.674594    0.058060
C      -1.145511   -2.155610   -0.125738
C       0.206278   -2.800423   -0.350645
O       0.364330   -3.974484   -0.509914
O       1.306653   -1.982902   -0.372034
C       1.281515   -0.603144   -0.199525
N       2.368729    0.043150   -0.240812
H       0.644892    1.822633    1.061643
H       0.455090    2.038218   -0.665254
H      -0.991750    1.937662    0.368589
H      -2.088240   -0.190996    0.224301
H      -1.596679   -2.659470    0.739268
H      -1.779038   -2.444153   -0.975030
H       3.154687   -0.587705   -0.406123
