18

O      -0.078930    1.370198    0.394287
C      -0.004382    0.008462   -0.010323
C      -1.401871   -0.538359   -0.037305
C      -2.019319   -1.121611    1.199523
C      -1.704129   -2.021882    0.020015
C      -2.859911   -2.268891   -0.916836
O      -3.345086   -3.334069   -1.229176
N      -3.274248   -1.032495   -1.354118
C      -2.385619    0.073272   -1.038524
H       0.796150    1.759542    0.305018
H       0.448234   -0.079268   -1.011370
H       0.610729   -0.586106    0.683499
H      -1.378414   -1.220173    2.069061
H      -3.060119   -0.911340    1.423553
H      -0.949999   -2.793012    0.107634
H      -4.034449   -0.960188   -2.010576
H      -2.927517    0.924882   -0.612631
H      -1.849416    0.430299   -1.929436
