16

N       0.120820    1.338516   -0.007892
C      -0.127503    0.030433    0.367037
O       0.291264   -0.464390    1.397239
N      -0.887140   -0.689307   -0.537002
C      -0.967922   -2.117047   -0.361294
C      -2.061451   -2.693980    0.564280
O      -2.646530   -3.406518   -0.581877
C      -1.757471   -2.820404   -1.447604
N      -1.678612   -2.823302   -2.698760
H       0.468149    1.909320    0.747104
H      -0.541851    1.798424   -0.613005
H      -0.931233   -0.377997   -1.496823
H       0.013359   -2.560983   -0.167050
H      -1.734289   -3.391942    1.335565
H      -2.761181   -1.957306    0.962324
H      -2.420077   -3.380763   -3.125755
