15

N      -0.114665    1.296035    0.217275
C       0.022185   -0.068708    0.024721
O       1.050292   -0.674290    0.264931
N      -1.124657   -0.679912   -0.449703
C      -1.193837   -2.118779   -0.443316
C      -2.564729   -2.582543    0.017097
O      -3.448516   -1.804021    0.311378
C      -2.750465   -4.017604    0.060409
C      -2.878121   -5.213650    0.095290
H       0.767994    1.767638    0.339662
H      -0.778149    1.790944   -0.358974
H      -2.013919   -0.238554   -0.251204
H      -1.012564   -2.555840   -1.437276
H      -0.416897   -2.531603    0.212090
H      -3.005211   -6.268768    0.131210
