23

C      -0.111499    1.592249    0.063706
C      -0.002948    0.052006    0.023921
C      -1.422920   -0.545287    0.029955
O      -2.124710   -0.075513    1.172762
C       0.707082   -0.422605   -1.264679
C       2.231571   -0.278356   -1.182342
C       2.800370   -1.108978   -0.024052
C       1.970098   -0.965379    1.224354
C       0.744151   -0.444386    1.245926
H       0.877035    2.057573    0.026198
H      -0.697424    1.959293   -0.787576
H      -0.608347    1.920504    0.979169
H      -1.940045   -0.248412   -0.897990
H      -1.351285   -1.643938    0.037082
H      -2.984978   -0.503207    1.195225
H       0.464711   -1.480655   -1.437506
H       0.316322    0.132243   -2.125888
H       2.690245   -0.581543   -2.129670
H       2.493714    0.775855   -1.033983
H       2.850327   -2.171187   -0.308999
H       3.837736   -0.815855    0.181428
H       2.415564   -1.317565    2.152661
H       0.203234   -0.361529    2.184608
