14

O       0.021928    0.014843   -0.154388
C      -0.024601    1.199734    0.002368
C      -1.257322    2.085037    0.183382
C      -0.673998    3.463213    0.538572
N       0.673617    3.522212   -0.070506
C       1.216882    2.166357    0.009774
C       1.984790    1.965376    1.246063
N       2.560164    1.795032    2.233563
H      -1.795591    2.110108   -0.772081
H      -1.930448    1.651518    0.926715
H      -1.276686    4.299615    0.181969
H      -0.568861    3.569408    1.623815
H       0.598808    3.784168   -1.047440
H       1.861948    1.931220   -0.841309
