14

O      -0.418423    0.084561    0.011628
C      -0.118234    1.244339    0.009735
N       1.170430    1.767900   -0.003340
C       2.371650    1.071737   -0.018390
N       2.532372   -0.192880   -0.032256
C       3.978131   -0.410114   -0.043352
C       4.641256    0.972786   -0.034342
O       5.801368    1.293844   -0.036632
N       3.545418    1.836366   -0.018936
H      -0.854514    2.073169    0.018524
H       1.230029    2.774478   -0.002610
H       4.298878   -0.990338    0.829355
H       4.287643   -0.973398   -0.931072
H       3.632980    2.839790   -0.005111
