18

C      -0.236495    1.514845    0.050227
C      -0.352537    0.001198   -0.110285
O       0.915054   -0.641786    0.020388
C      -1.378950   -0.607028    0.860420
C      -1.516624   -2.096764    0.671553
O      -2.604412   -2.751041    1.324856
C      -2.619002   -2.714959   -0.102611
C      -3.644176   -1.901398   -0.720990
N      -4.452328   -1.256483   -1.238130
H       0.515345    1.909565   -0.638033
H      -1.191074    2.008958   -0.154700
H       0.061381    1.776470    1.073722
H      -0.665539   -0.225098   -1.136970
H       1.311677   -0.343325    0.846827
H      -1.054939   -0.416852    1.893194
H      -2.352855   -0.123286    0.735767
H      -0.581834   -2.654870    0.689045
H      -2.453957   -3.672020   -0.593861
