14

O      -0.038754    0.039882   -0.147937
C       0.018441    1.219578   -0.056154
C      -1.023181    2.379263    0.028293
N       0.104989    3.270618    0.438064
C       1.157393    2.273030    0.074963
C       2.207873    2.046264    1.044452
C       3.077206    1.831547    1.845528
C      -1.662160    2.682401   -1.238316
C      -2.154858    2.952750   -2.301742
H      -1.766337    2.245389    0.823161
H       0.155419    4.126235   -0.103488
H       1.591075    2.433550   -0.924903
H       3.843012    1.645786    2.557703
H      -2.605241    3.186317   -3.235101
