19

C       0.025187    1.503524   -0.019935
C      -0.101669   -0.006273    0.080866
O       0.764525   -0.448711    1.123878
C       0.796903   -1.842251    1.311042
C       2.016157   -2.241576    2.161286
C       1.450904   -3.157388    3.216120
C       0.114182   -3.235364    3.190991
C      -0.422860   -2.391488    2.103303
O      -1.583953   -2.150788    1.859739
H       1.059688    1.793094   -0.226743
H      -0.610666    1.883295   -0.825262
H      -0.283146    1.977720    0.916195
H      -1.133665   -0.304806    0.293314
H       0.196842   -0.486265   -0.866901
H       0.818104   -2.361902    0.337884
H       2.810399   -2.722756    1.580745
H       2.453028   -1.342556    2.611406
H       2.091117   -3.678442    3.920587
H      -0.520906   -3.798421    3.862899
