22

C      -0.546039    0.536205   -2.635257
C      -0.235099   -0.460850   -1.511506
C      -1.479146   -0.890399   -0.759551
C      -2.360319   -2.067437   -1.179302
C      -2.075541   -2.937209   -2.385931
C      -1.558144   -2.116427    0.106906
C      -0.389456   -3.057154    0.300704
O      -2.281318   -1.892854    1.298664
H       0.366563    0.851098   -3.151198
H      -1.219613    0.096887   -3.378306
H      -1.033040    1.434168   -2.239619
H       0.284890   -1.327662   -1.932569
H       0.469834   -0.003237   -0.804933
H      -2.040244   -0.055183   -0.346250
H      -3.420112   -1.896201   -1.005901
H      -1.006491   -3.077342   -2.564066
H      -2.518539   -3.932819   -2.267433
H      -2.500898   -2.495837   -3.294394
H       0.199243   -3.195003   -0.608563
H       0.273476   -2.674937    1.083513
H      -0.742131   -4.047694    0.615483
H      -2.710573   -2.721875    1.539502
