12

O      -0.066542    1.291473   -0.332719
C       0.011696   -0.016306   -0.019527
N       1.178826   -0.534709    0.134767
O       1.225616   -1.898605    0.460447
C       0.093720   -2.677496    0.615650
N       0.188624   -3.910136    0.911400
C      -1.189837   -2.021408    0.425540
C      -1.243997   -0.720067    0.114549
H       0.839161    1.630027   -0.389213
H       1.168265   -4.185188    1.002830
H      -2.067549   -2.642696    0.550037
H      -2.167543   -0.176096   -0.039359
