19

C      -0.076896    1.580324    0.016146
C      -0.060126    0.051771   -0.005849
O      -1.403918   -0.289853   -0.178423
C       1.056134   -0.589668   -0.921171
C       2.051756   -0.261263    0.252280
C       0.799993   -0.621765    1.134872
C       0.756333   -2.128049    0.799866
O      -0.299668   -2.590822   -0.076867
C       0.937298   -2.105270   -0.653795
H       0.896302    2.052032    0.145339
H      -0.514103    1.935608   -0.921408
H      -0.732755    1.907881    0.827953
H      -1.435276   -1.257742   -0.197446
H       1.223169   -0.262286   -1.947210
H       2.911878   -0.928362    0.349076
H       2.383452    0.773006    0.309728
H       0.709066   -0.326754    2.180132
H       1.157611   -2.879157    1.471189
H       1.493409   -2.837266   -1.228910
