15

C      -0.409786    1.329606    0.622852
C      -0.111048   -0.093807    0.200102
O       0.756582   -0.676758    1.209025
C       1.074357   -1.953829    1.033700
O       0.725143   -2.671280    0.132616
C       2.025578   -2.471468    2.116558
O       3.148710   -2.062078    2.262833
C       1.493526   -3.610852    2.991665
O       0.329734   -3.901207    3.042304
H       0.510021    1.915105    0.702174
H      -1.058468    1.803592   -0.119530
H      -0.919385    1.351223    1.589887
H      -1.014284   -0.706156    0.127082
H       0.405061   -0.141714   -0.763168
H       2.283152   -4.088041    3.608237
