17

C      -0.002347    1.558771    0.027467
C       0.126841    0.063771    0.030619
N      -0.782041   -0.800203    0.839135
C       0.669110   -0.811127    1.100352
C       1.392901   -1.958894    0.424289
C       0.620749   -2.973188   -0.336882
N       1.230342   -1.812490   -1.033472
C       0.398009   -0.671759   -1.280788
O       0.020045   -0.330897   -2.367628
H       0.926641    2.032930   -0.304397
H      -0.795297    1.864446   -0.661939
H      -0.240131    1.936021    1.027388
H      -1.246949   -0.213695    1.530156
H       1.051154   -0.415179    2.034195
H       2.400800   -2.179790    0.763231
H       1.077662   -3.926970   -0.583154
H      -0.456612   -2.973195   -0.219233
