20

C      -0.683935    1.460852   -0.273419
C      -0.086403    0.060958   -0.038968
C      -1.181252   -1.006485    0.228341
N      -1.944879   -0.757025    1.435380
C      -3.239660   -0.310766    1.416147
C      -3.899984   -0.194182    2.781929
O      -3.829047   -0.042849    0.385534
C       0.740768   -0.364985   -1.165640
C       1.396557   -0.730831   -2.104547
H       0.109402    2.194664   -0.436143
H      -1.339124    1.458081   -1.148232
H      -1.273283    1.770547    0.593067
H       0.555238    0.106118    0.853516
H      -1.892480   -1.016518   -0.600189
H      -0.711136   -1.993401    0.290102
H      -1.523434   -0.975818    2.322829
H      -3.193821   -0.229475    3.615989
H      -4.459359    0.742478    2.820965
H      -4.618594   -1.011364    2.898491
H       1.985233   -1.045904   -2.930173
