17

O      -0.019391    1.458065   -0.188496
C      -0.027926    0.073233   -0.194106
C      -0.075567   -0.666855    1.177186
O      -1.457735   -0.124283    1.339858
C      -1.402730   -0.651742   -0.053431
C      -0.702653   -1.913723    0.508798
C       0.095440   -2.886843   -0.366800
C       0.963353   -3.746247    0.431633
C       1.669462   -4.437692    1.115304
H      -0.653324    1.708836    0.499940
H       0.675530   -0.269743   -0.952978
H       0.590096   -0.598555    2.037503
H      -2.309402   -0.562615   -0.653360
H      -1.347879   -2.447170    1.208820
H      -0.612389   -3.506963   -0.932264
H       0.695806   -2.359043   -1.115152
H       2.297111   -5.055950    1.708028
