14

C      -0.006692    1.436146    0.049007
N      -0.054407   -0.013595    0.070575
C      -1.260340   -0.664876    0.015113
N      -2.372532   -0.048226    0.089586
C      -3.626114   -0.768579    0.111063
C      -1.123581   -2.114679   -0.102834
N      -1.034792   -3.262479   -0.211124
H       1.033196    1.751949    0.150598
H      -0.426014    1.852689   -0.875858
H      -0.587130    1.836022    0.883804
H       0.748808   -0.519699   -0.263368
H      -4.264440   -0.402130   -0.701064
H      -3.531196   -1.859082    0.013780
H      -4.153105   -0.550993    1.047741
