21

C       0.042463    1.533216   -0.080220
O       1.433049    1.818522   -0.203389
C       2.163206    0.870281    0.577781
C       1.199059   -0.259434    0.863908
C       1.292506   -1.229312    1.767464
C       0.180485   -2.216976    2.021973
C      -0.984465   -2.085859    1.023123
C      -1.279402   -0.617634    0.671487
C      -0.038519    0.005216    0.034133
H      -0.382286    2.008999    0.820272
H      -0.458799    1.946322   -0.959871
H       3.037279    0.557063   -0.007491
H       2.531547    1.331066    1.507062
H       2.180523   -1.315768    2.391620
H       0.573828   -3.241790    2.003491
H      -0.186425   -2.069696    3.049105
H      -0.731427   -2.621799    0.099556
H      -1.877941   -2.571021    1.429493
H      -2.142295   -0.551521   -0.000307
H      -1.538516   -0.062847    1.583163
H       0.102072   -0.411077   -0.974841
