12

O       0.485405    0.719345   -0.779280
C      -0.038118    0.078552    0.365004
C      -1.420958   -0.424776    0.116084
C      -2.158996   -0.544452   -0.984766
O      -3.393952   -1.068306   -0.642057
C      -3.390950   -1.271957    0.708942
O      -4.282859   -1.712907    1.356242
O      -2.168534   -0.871416    1.191590
H      -0.001475    1.540608   -0.907384
H       0.635509   -0.757053    0.588550
H      -0.042759    0.726480    1.254875
H      -1.976296   -0.333794   -2.022214
