19

C      -0.044765    1.633565   -0.002330
C       0.077076    0.116309    0.006762
C       1.130175   -0.661010   -0.906980
C       2.408250    0.145231   -0.985979
C       2.992879    0.152715    0.216519
C       2.227578   -0.731397    1.141956
C       1.342115   -1.630544    0.306285
C       0.672815   -0.630257    1.197970
O       0.003581   -0.899276    2.379318
H       0.918988    2.118196    0.173049
H      -0.438603    1.995398   -0.958886
H      -0.737941    1.962000    0.780833
H      -0.899764   -0.339562   -0.186351
H       0.736557   -1.055284   -1.842774
H       2.696827    0.735196   -1.846934
H       3.864001    0.724802    0.511680
H       2.663855   -1.128494    2.051693
H       1.336843   -2.713399    0.316146
H       0.145852   -0.162612    2.983459
