17

N       0.255307    1.131372   -0.687185
C      -0.200691    0.299467    0.417435
C      -1.517037   -0.389940    0.190010
N      -2.281741   -0.324933   -0.854241
C      -3.366292   -1.144048   -0.548023
C      -4.492378   -1.344819   -1.504604
O      -5.424627   -2.229612   -0.907030
C      -3.188470   -1.664175    0.686457
O      -1.997392   -1.185615    1.175392
H       0.309979    0.559689   -1.526075
H      -0.462145    1.821144   -0.894630
H       0.561565   -0.458634    0.637170
H      -0.275494    0.913056    1.324121
H      -4.947234   -0.368937   -1.740152
H      -4.096769   -1.745310   -2.452117
H      -6.154286   -2.354376   -1.519689
H      -3.748145   -2.328931    1.318482
