16

O       0.293304    1.546698    0.005104
C       0.142129    0.141981    0.037423
C       0.673729   -0.494038   -1.189446
N       1.119360   -0.981399   -2.137584
C       0.773796   -0.489299    1.250010
C       2.237896   -0.749015    1.466873
C       1.239840   -1.883933    1.597025
C       0.426700   -1.686930    2.872017
O       0.102285   -0.315709    2.497515
H       1.231407    1.745239    0.113660
H      -0.938393   -0.034005    0.075267
H       2.852889   -0.801812    0.573929
H       2.719736   -0.333656    2.347420
H       1.285984   -2.777022    0.989676
H      -0.482682   -2.294942    2.916178
H       0.959899   -1.739384    3.827464
