17

C      -0.135381    1.425301   -0.080642
C      -0.029791   -0.026023   -0.050149
C       0.068266   -1.226521   -0.033748
C       0.161074   -2.688142    0.003622
O      -1.133668   -3.294492    0.034273
C       0.908841   -3.236799   -1.208311
C       0.650637   -4.616062   -1.679505
N       0.196864   -3.450993   -2.468954
H       0.844769    1.891902    0.066109
H      -0.530411    1.775934   -1.040084
H      -0.798450    1.793550    0.709751
H       0.723247   -2.980268    0.906230
H      -1.722228   -2.696608    0.504164
H       1.904649   -2.813462   -1.315551
H       1.454570   -5.191455   -2.129685
H      -0.099058   -5.196253   -1.151591
H      -0.796934   -3.320670   -2.286403
