17

C      -0.052729    1.595088   -0.032380
C       0.034612    0.089577    0.021616
C       1.308912   -0.667020   -0.198756
O       2.511627    0.050861   -0.108641
C       2.823712    0.105105    1.277344
O       1.587488    0.152616    1.965435
C       0.707851   -0.627272    1.204902
C       0.090027   -1.808902    1.842239
O       0.300900   -2.183515    2.966893
H       0.853439    2.058586    0.357901
H      -0.189439    1.927543   -1.066138
H      -0.901785    1.953651    0.556605
H      -0.843607   -0.440417   -0.344241
H       1.348883   -1.569345   -0.801074
H       3.395643   -0.788218    1.574903
H       3.386583    1.018479    1.482396
H      -0.618826   -2.342416    1.165671
