18

C      -0.019868    1.548289    0.028873
C       0.027341    0.046813    0.005148
C      -0.866899   -0.824030    0.841316
C       0.614597   -0.961425    1.029295
C       1.239151   -1.782285   -0.117894
N       0.628967   -3.072683   -0.462051
C      -0.131979   -2.825878   -1.448902
O      -0.223123   -1.566889   -1.965447
C       0.653800   -0.769084   -1.134485
H       0.939750    1.986585   -0.268674
H      -0.786629    1.931325   -0.655183
H      -0.258288    1.917594    1.031421
H      -1.375608   -0.292476    1.639794
H      -1.455312   -1.627229    0.409001
H       1.097500   -0.759309    1.977952
H       2.326041   -1.862863   -0.059203
H      -0.752624   -3.554851   -1.959912
H       1.332427   -0.210267   -1.780800
