18

O       0.020649   -0.050840    0.126164
C      -0.011983    1.164752    0.040979
N      -1.207991    1.850901   -0.089503
C      -1.354436    3.284577    0.169518
C      -0.215506    3.992682   -0.551570
C       0.472772    5.291355   -0.016032
C       1.862855    4.591863   -0.215466
C       1.096354    3.291392   -0.293680
C       1.210947    2.013781    0.055661
H      -2.014138    1.258530    0.046178
H      -2.338592    3.603989   -0.186420
H      -1.303593    3.505672    1.248193
H      -0.426204    4.072784   -1.625051
H       0.294779    6.213815   -0.571161
H       0.254311    5.458403    1.041764
H       2.321961    4.869376   -1.170621
H       2.612904    4.691082    0.572602
H       2.132886    1.530305    0.357331
