17

O      -0.927895    0.760075    0.166916
C      -0.201847   -0.443331   -0.058888
C       0.829947   -0.271061   -1.184062
C       0.177488    0.231124   -2.454572
O       0.495549    1.237136   -3.032662
C       0.435310   -0.978592    1.216164
C       0.984626   -0.060015    2.241849
N      -0.259532   -0.811419    2.494327
H      -0.312364    1.501053    0.138727
H      -0.963466   -1.165112   -0.384636
H       1.620019    0.427990   -0.888264
H       1.296691   -1.243661   -1.391535
H      -0.651465   -0.412226   -2.829904
H       0.903540   -1.953752    1.089454
H       1.839067   -0.360483    2.840937
H       0.907874    1.010992    2.072148
H      -1.044639   -0.179898    2.338727
