18

O       0.471919    0.699223   -0.908540
C       0.080100   -0.392018   -0.130302
C       0.451083   -0.239865    1.341634
O       1.280806    0.547366    1.726331
C      -0.484282   -1.109758    2.175652
C      -1.553070   -1.608388    1.168649
C      -1.417600   -0.655378   -0.017364
C      -2.387686    0.422957   -0.324108
N      -2.288425   -0.786217   -1.174873
H       1.060333    1.224811   -0.344078
H       0.559154   -1.320714   -0.498568
H       0.069980   -1.916283    2.665211
H      -0.904495   -0.488455    2.972816
H      -1.335146   -2.631365    0.842630
H      -2.562479   -1.609127    1.583384
H      -3.308616    0.503180    0.246910
H      -1.990472    1.355225   -0.712574
H      -1.771839   -0.555611   -2.021755
