27

C       0.586134    1.615901   -0.145693
C       0.192681    0.137426   -0.036704
C       0.717662   -0.697939   -1.237742
C       1.273996   -2.007882   -0.645240
C       2.222627   -2.766722   -1.572104
C       1.838698   -1.567503    0.729153
C       3.231427   -0.925182    0.653475
C       0.713010   -0.625476    1.234678
C       1.048816    0.233122    2.454563
H       1.673109    1.751645   -0.157514
H       0.195018    2.042052   -1.076243
H       0.185455    2.210237    0.681460
H      -0.902878    0.101238   -0.022748
H      -0.053350   -0.879886   -1.993197
H       1.524161   -0.153438   -1.746014
H       0.420059   -2.666477   -0.430517
H       3.074131   -2.148471   -1.874914
H       2.617397   -3.669411   -1.092351
H       1.705410   -3.078899   -2.485996
H       1.915688   -2.434818    1.397670
H       3.262578   -0.063201   -0.020877
H       3.560165   -0.582516    1.639070
H       3.973854   -1.646079    0.297907
H      -0.103751   -1.293303    1.539582
H       1.838332    0.962284    2.252712
H       0.169509    0.788558    2.798565
H       1.384060   -0.394689    3.287765
