20

C      -0.047321    1.058547    1.184696
C       0.463814   -0.345613    0.963686
C       0.721712   -1.002558   -0.330601
C       1.327678   -0.057823   -1.371415
C       2.493317    0.132443   -0.370182
C       2.982250    1.498049    0.040634
C       3.374992    2.495317   -0.964355
O       2.172114    2.650710   -0.209772
N       1.857955   -0.765385    0.671229
H       0.226251    1.755442    0.394281
H      -1.140423    1.029930    1.257646
H       0.334518    1.460913    2.129483
H       0.079476   -1.040964    1.709830
H       0.374522   -2.006728   -0.555103
H       1.627300   -0.552079   -2.296476
H       0.738569    0.829542   -1.615127
H       3.376713   -0.421659   -0.707753
H       3.492261    1.516942    1.005496
H       4.163915    3.212346   -0.743097
H       3.232959    2.272767   -2.021403
