14

C       0.058652    1.438269    0.079001
N      -0.061972    0.009937   -0.112860
C      -1.243015   -0.667030   -0.040827
C      -2.509180   -0.039221   -0.023075
N      -3.614047   -0.761296    0.010779
C      -3.421816   -2.072761    0.029610
F      -4.507689   -2.822446    0.057024
N      -2.274808   -2.723967    0.032428
N      -1.160852   -2.006677    0.000427
H       1.112635    1.711560    0.009836
H      -0.477027    1.990094   -0.702431
H      -0.319539    1.772650    1.055995
H       0.752197   -0.568598    0.023137
H      -2.618107    1.041211   -0.034310
