16

C       0.137201    1.527829   -0.046506
N       1.282415    0.603651    0.075293
C      -0.083855    0.066600    0.022690
C      -0.592113   -0.700265    1.248266
C      -1.359716   -1.880496    0.618097
O      -0.820064   -2.039391   -0.690364
C      -0.593518   -0.730148   -1.178445
H      -0.043235    2.151600    0.825355
H      -0.033145    2.028694   -0.997858
H       1.740681    0.498873   -0.827361
H       0.263331   -1.041977    1.835746
H      -1.229829   -0.092385    1.895449
H      -1.231778   -2.826672    1.148564
H      -2.437989   -1.658545    0.559993
H      -1.530759   -0.290880   -1.563469
H       0.124405   -0.786374   -2.003129
