20

C       0.065119    1.437233    0.771341
C       0.057682    0.004486    0.276710
C       0.167637   -0.385640   -1.167569
C       0.285230    0.638299   -2.267555
O       0.925113    0.031151   -3.405088
C       1.959396    0.673841   -3.975420
O       2.531892    0.256817   -4.936313
N       1.241927   -0.691738   -0.223258
C       2.531352   -0.023841   -0.306167
H       0.651067    2.117537    0.151103
H      -0.958863    1.823216    0.811904
H       0.472340    1.483611    1.787106
H      -0.568241   -0.640434    0.894060
H      -0.374616   -1.270358   -1.499997
H      -0.713886    0.954461   -2.587867
H       0.840966    1.531079   -1.966407
H       2.216508    1.619522   -3.457267
H       2.509725    1.041888   -0.578600
H       3.027949   -0.103570    0.665897
H       3.148480   -0.548518   -1.041857
