18

O      -0.117447    1.437719   -0.063927
C      -0.109265    0.040609   -0.107529
C       0.578384   -0.748083    1.077375
C      -0.788228   -1.373025    1.386027
O      -1.688554   -0.272084    1.624676
C      -1.427235   -0.664404    0.257819
C      -1.101261   -2.667648    2.036600
C      -1.499266   -2.694100    3.469023
N      -2.486394   -2.976892    2.412830
H      -0.589264    1.677569    0.744033
H       0.282912   -0.253418   -1.083675
H       1.321548   -1.468597    0.726944
H       1.004311   -0.135191    1.875415
H      -2.289630   -0.910660   -0.351552
H      -0.544527   -3.511396    1.634072
H      -1.228810   -3.544461    4.087975
H      -1.561236   -1.742784    3.989735
H      -3.045410   -2.137692    2.266447
