16

C      -0.059195    1.439697   -0.115908
C       0.044187   -0.077233   -0.045134
O       0.781039   -0.519530    1.110417
C       2.121793   -0.611310    0.991465
N       2.733714   -0.315498   -0.083319
C       2.727554   -1.076613    2.208369
C       3.280679   -1.461772    3.203560
C      -1.307229   -0.771345    0.050265
O      -2.304804   -0.365879   -0.484053
H       0.918962    1.876643   -0.322244
H      -0.754246    1.708939   -0.914489
H      -0.444221    1.839748    0.826117
H       0.549542   -0.460379   -0.941911
H       3.734576   -0.463283    0.017882
H       3.766460   -1.802481    4.085275
H      -1.288526   -1.710967    0.644406
