21

C      -0.222799    1.384818   -0.192906
C       1.231658    1.113132    0.102800
C       0.249014   -0.028832    0.050539
C      -0.147880   -0.764085    1.310325
C      -1.551185   -1.420020    1.219509
O      -1.538398   -2.569700    2.062240
C      -0.209162   -3.012447    2.169076
C       0.583666   -3.232353    0.906598
C       0.734786   -1.944477    1.705246
H      -0.814086    1.862593    0.581834
H      -0.500340    1.672272   -1.200892
H       1.949511    1.213745   -0.703587
H       1.613766    1.409033    1.074556
H       0.312237   -0.665901   -0.828484
H      -0.140220   -0.052917    2.147161
H      -2.358142   -0.763944    1.556260
H      -1.766493   -1.707710    0.179673
H      -0.056782   -3.631268    3.045287
H       1.406181   -3.937958    0.953027
H       0.068866   -3.214935   -0.048317
H       1.673773   -1.745314    2.207920
