18

O       0.316455    0.137553   -0.653018
C       0.164849    1.216672   -0.162453
C      -1.029552    1.913094    0.525692
C      -0.177987    3.209495    0.625552
C       0.636527    3.343627    1.940324
C       1.796280    2.586607    1.271709
C       3.243283    2.817035    1.478356
N       2.623027    1.526361    1.832496
C       1.040255    2.472883   -0.068318
H      -1.885431    1.990188   -0.153133
H      -1.376183    1.469114    1.463914
H      -0.619152    4.115087    0.214300
H       0.886705    4.374185    2.207369
H       0.188107    2.859181    2.814556
H       3.929558    2.775605    0.636458
H       3.538282    3.498099    2.273779
H       2.480779    1.463512    2.837955
H       1.561995    2.800111   -0.968667
