15

C      -0.011055    1.536984    0.031993
C      -0.000243    0.033768    0.011344
C       0.080945   -0.664260   -1.196232
O       0.151644    0.003861   -2.369908
C       0.086563   -2.056675   -1.149224
F       0.165667   -2.716468   -2.322740
C       0.013710   -2.725432    0.056321
N      -0.064100   -2.072885    1.219302
C      -0.069016   -0.738876    1.172912
H       0.896452    1.947683   -0.423633
H      -0.856890    1.936868   -0.537627
H      -0.079998    1.909199    1.056881
H       0.200895   -0.646074   -3.082787
H       0.019506   -3.811747    0.075030
H      -0.134029   -0.230642    2.133003
