20

C      -0.197118    1.513843   -0.062141
C       0.003009   -0.010814    0.033477
C       0.788463   -0.413037    1.282510
C       2.276194   -0.093119    1.162676
N       2.965215   -0.150014    2.340678
O       2.818180    0.189519    0.109476
C      -1.315368   -0.779559   -0.063594
C      -2.215902   -0.462530   -1.247161
O      -1.632836   -1.617248    0.752174
H       0.776284    2.009021   -0.037923
H      -0.692700    1.802186   -0.992587
H      -0.798900    1.887509    0.774212
H       0.601481   -0.307217   -0.839539
H       0.374084    0.069481    2.175823
H       0.676564   -1.489857    1.452001
H       2.543772   -0.500511    3.183314
H       3.968190   -0.067182    2.304592
H      -1.642195   -0.326457   -2.168985
H      -2.944976   -1.264647   -1.368993
H      -2.755396    0.473212   -1.061771
