21

C       0.084722    1.510655    0.174777
C      -0.026333   -0.007080   -0.018859
C      -1.456419   -0.557304   -0.013275
C      -2.325183    0.010392   -1.137556
C      -1.611110   -2.084447    0.111419
C      -1.536831   -2.368843    1.623227
O      -1.287482   -1.135324    2.300403
C      -2.220841   -0.536355    1.356861
C      -2.829026   -1.948624    1.018563
H       1.134307    1.816833    0.221387
H      -0.383091    2.069610   -0.641589
H      -0.388842    1.825592    1.111112
H       0.449385   -0.291925   -0.967326
H       0.531851   -0.508305    0.776236
H      -1.886339   -0.206076   -2.117868
H      -3.330852   -0.421170   -1.121050
H      -2.426812    1.097247   -1.054820
H      -1.414251   -2.843825   -0.636141
H      -1.199890   -3.294127    2.071175
H      -2.723262    0.349090    1.743040
H      -3.823813   -2.369899    1.000216
