22

C      -0.203481    1.466337    0.006265
O      -0.068793    0.071770    0.135015
C      -1.287568   -0.660903    0.042179
C      -1.750909   -0.802820   -1.410267
C      -1.027360   -2.019650    0.698388
C      -0.676092   -1.916698    2.166611
C      -1.765438   -1.877664    3.210704
C      -0.876121   -3.091904    3.086682
H       0.784135    1.902654    0.178143
H      -0.545866    1.771902   -0.993594
H      -0.905288    1.878198    0.748851
H      -2.064520   -0.132444    0.620938
H      -2.692143   -1.359703   -1.460519
H      -1.918785    0.171292   -1.878496
H      -0.998859   -1.339325   -1.997799
H      -1.918632   -2.647302    0.573268
H      -0.213401   -2.511762    0.149713
H       0.191536   -1.295439    2.363079
H      -1.639013   -1.230501    4.071735
H      -2.794391   -1.971153    2.876527
H      -1.310982   -3.995290    2.670383
H      -0.140305   -3.274105    3.862338
