15

O       0.115835    1.394046    0.435743
C      -0.005449    0.073935   -0.067043
C      -1.419573   -0.421627    0.002165
C      -2.110891   -1.056176    1.209007
O      -3.521619   -0.833502    1.109938
C      -3.400234   -1.206707   -0.291362
C      -2.008301   -1.886151   -0.011282
C      -2.563298   -0.049650   -0.890968
O      -2.665265    0.677429   -1.839276
H      -0.382282    1.972752   -0.151945
H       0.354587    0.005038   -1.104535
H       0.650396   -0.551394    0.548488
H      -1.648641   -1.121396    2.185573
H      -4.297569   -1.624004   -0.738925
H      -1.533263   -2.809840   -0.306282
