21

C       0.088918    1.179625   -0.336652
O      -0.053764   -0.103495    0.242017
C      -1.337707   -0.659691    0.120474
C      -2.407922    0.025181    0.947648
C      -1.789817   -1.263281   -1.196419
C      -0.593691   -1.839026   -1.965185
C      -0.243530   -2.748100   -0.744466
C      -1.433727   -2.150839    0.013673
O      -2.297056   -2.903592    0.795767
H       1.156510    1.413681   -0.333425
H      -0.279491    1.200201   -1.371931
H      -0.439523    1.955230    0.235238
H      -2.604514    1.039847    0.587606
H      -3.342975   -0.536608    0.909210
H      -2.091148    0.094701    1.994168
H      -2.760403   -1.026727   -1.617954
H      -0.896319   -2.415375   -2.841704
H       0.174519   -1.120830   -2.262016
H      -0.407991   -3.806150   -0.958799
H       0.739795   -2.610959   -0.288663
H      -1.972010   -2.892433    1.703343
