23

C       0.902689    1.307931   -0.099612
O       0.992751   -0.077647   -0.320573
C      -0.098626   -0.590220   -1.065104
C       0.074480   -2.092776   -1.158884
C      -0.681824   -2.945711   -2.222604
C       0.298739   -2.407068   -3.302923
C       1.189309   -2.733699   -2.060241
C       2.677716   -2.557599   -1.920855
C       0.368775   -4.058658   -1.947985
H       0.889002    1.875484   -1.044313
H      -0.003115    1.573877    0.469042
H       1.781300    1.607104    0.477607
H      -1.048956   -0.356445   -0.552915
H      -0.143001   -0.103210   -2.051023
H       0.045023   -2.511545   -0.146057
H      -1.761449   -3.072609   -2.315674
H       0.447771   -3.047054   -4.177810
H       0.208292   -1.362504   -3.605913
H       2.951458   -1.500262   -1.986025
H       3.024723   -2.928331   -0.950221
H       3.215528   -3.104320   -2.703621
H       0.338085   -4.534317   -0.962956
H       0.518766   -4.793176   -2.744516
