20

C       0.086969    1.447459   -0.411175
C       0.209846   -0.048479   -0.243925
C       1.556101   -0.702768   -0.091621
C       0.632164   -0.612182    1.098036
N       0.819511    0.159764    2.341619
C       0.245348   -0.961623    3.166705
C      -0.953039   -0.586402    4.024318
C      -0.032543   -1.722460    1.850412
O      -0.578778   -2.747910    1.557592
H       0.804786    1.972995    0.225116
H       0.264774    1.743432   -1.450513
H      -0.912385    1.791385   -0.126602
H      -0.545007   -0.644681   -0.751156
H       1.725520   -1.684560   -0.521763
H       2.428811   -0.055593   -0.071180
H       1.800149    0.315445    2.552805
H       1.001967   -1.485303    3.766577
H      -1.701432   -0.056566    3.428524
H      -1.412562   -1.487209    4.443282
H      -0.651054    0.065713    4.849441
