18

N      -0.085591    1.224175   -0.214592
C      -0.070389   -0.036406   -0.149857
O      -1.203505   -0.712606    0.114997
C      -1.082502   -2.125192    0.303784
C      -2.448739   -2.742863    0.092173
C      -3.052727   -2.730495   -1.360597
C      -3.066029   -4.263232   -1.314151
O      -1.716305   -4.692989   -1.090058
C      -2.493419   -4.282577    0.041526
H       0.843931    1.569241   -0.444743
H       0.802491   -0.687089   -0.303204
H      -0.369712   -2.549632   -0.413056
H      -0.717649   -2.329406    1.320252
H      -3.162701   -2.339332    0.814948
H      -4.047634   -2.282501   -1.391209
H      -2.432129   -2.293723   -2.146193
H      -3.729158   -4.963846   -1.807471
H      -2.600288   -4.992303    0.853884
