14

O       0.004973   -0.017612    0.179289
C      -0.039198    1.178700    0.123003
C      -1.271278    2.070118    0.048217
C      -0.769267    3.467287    0.507741
C       0.707199    3.546379    0.029060
C       1.211907    2.112223    0.110917
O       2.346758    1.729729    0.156715
C      -1.594964    4.567741    0.023304
N      -2.246173    5.435342   -0.374872
H      -1.600165    2.111497   -0.997979
H      -2.100415    1.680437    0.640264
H      -0.782862    3.499705    1.603373
H       0.748103    3.863669   -1.020730
H       1.324076    4.235714    0.607083
