17

C      -0.021842    1.514871    0.019031
C      -0.008222    0.020277    0.000213
C      -0.026433   -0.797146   -1.070900
C      -0.002430   -2.254710   -0.655027
N       0.031649   -2.130614    0.797237
C       0.066073   -2.897273    1.918087
N       0.085277   -2.150684    3.006711
C       0.062377   -0.843129    2.573183
C       0.028775   -0.808887    1.198585
H       0.868001    1.907660    0.524172
H      -0.052226    1.925364   -0.992947
H      -0.891200    1.891071    0.570328
H      -0.054576   -0.493379   -2.108739
H      -0.891174   -2.805286   -0.987997
H       0.879450   -2.788387   -1.030988
H       0.075786   -3.976598    1.894954
H       0.071471   -0.020709    3.271460
