17

O       0.128986    1.421663    0.426018
C       0.088384    0.059989    0.022043
C      -1.259548   -0.502459   -0.014132
C      -2.383749   -0.932924   -0.068136
C      -3.743689   -1.435175   -0.123717
O      -4.290474   -1.514616   -1.468618
C      -4.259033   -2.957542   -1.457080
C      -3.928644   -2.974277    0.051052
O      -2.788049   -3.658811    0.482243
H      -0.493460    1.904004   -0.128216
H       0.563589   -0.081926   -0.961962
H       0.700865   -0.485717    0.748506
H      -4.392319   -0.824795    0.516427
H      -5.213207   -3.391432   -1.775742
H      -3.441015   -3.359759   -2.068593
H      -4.801590   -3.198510    0.675092
H      -3.043674   -4.544810    0.754685
