19

O       0.075140    1.197564    0.274206
C       0.026488   -0.202542    0.219782
C      -0.965148   -0.818637    1.189388
O      -1.622981    0.060890    2.040519
C      -1.254119   -0.800416   -0.308683
O      -2.118565    0.158654   -0.835751
C      -3.455607   -0.254264   -0.965238
C      -4.335030   -0.317736    0.250580
C      -4.493961    0.800094   -0.761450
H      -0.575618    1.519113   -0.365736
H       0.986886   -0.665662    0.013487
H      -0.740235   -1.776949    1.649386
H      -1.213231    0.925972    1.881514
H      -1.209819   -1.740820   -0.857571
H      -3.600511   -0.988273   -1.757007
H      -5.092635   -1.092815    0.293167
H      -3.861878   -0.070965    1.193228
H      -4.134859    1.781377   -0.472553
H      -5.358155    0.806655   -1.415993
