21

C       1.823659    3.064322   -1.057760
C       1.137479    1.738748   -0.716608
C      -0.397698    1.930266   -0.788934
C      -1.167945    0.763635   -0.368144
N      -1.776600   -0.155559   -0.020596
N       1.523948    0.729255   -1.695081
C       2.892410    0.220435   -1.683477
C       1.756733   -0.676738   -1.329134
C       1.624712   -1.231839    0.072610
H       2.910007    2.963052   -0.993247
H       1.572757    3.371496   -2.077932
H       1.515609    3.854530   -0.366510
H       1.400987    1.461121    0.315971
H      -0.692840    2.777498   -0.160224
H      -0.667597    2.172577   -1.822408
H       3.388495    0.165154   -2.649281
H       3.542522    0.517138   -0.860068
H       1.394605   -1.355489   -2.099552
H       2.065963   -0.575193    0.827538
H       0.578192   -1.407811    0.335466
H       2.153647   -2.189516    0.127535
