14

C       0.206346    0.991680    0.609649
O      -0.157381    0.436952   -0.659749
C       0.588586   -0.565692   -1.095884
N       0.317605   -1.104504   -2.219983
C       1.126704   -2.135180   -2.612226
N       2.162535   -2.689935   -2.027938
C       2.508200   -3.650356   -2.934370
N       1.763604   -3.710749   -4.006687
O       0.829385   -2.690326   -3.794798
H       0.133718    0.238022    1.400141
H       1.220072    1.403512    0.579537
H      -0.506885    1.792201    0.802407
H       1.414954   -0.880356   -0.448431
H       3.338898   -4.327952   -2.796378
