18

C       0.094846    1.578963   -0.088412
C      -0.002081    0.061167    0.084773
C      -1.450324   -0.477349    0.063489
C      -2.305943    0.046877    1.215524
O      -2.121480   -0.117262   -1.136272
C      -1.407307   -2.018186    0.118068
F      -0.717845   -2.464294    1.179565
F      -2.627318   -2.559324    0.171522
F      -0.805844   -2.506966   -0.988368
H       1.139690    1.881016   -0.203033
H      -0.455695    1.904282   -0.975038
H      -0.308951    2.115827    0.774792
H       0.551033   -0.434406   -0.722561
H       0.477618   -0.250234    1.018177
H      -2.379178    1.133786    1.155013
H      -3.312610   -0.369495    1.151951
H      -1.868091   -0.226792    2.178573
H      -1.632105   -0.498098   -1.874987
