15

N       0.032970    1.315192    0.066244
C      -0.042067   -0.037664    0.024992
N      -1.113183   -0.749735    0.030912
C      -0.761332   -2.178794    0.012971
C       0.758131   -2.261598    0.052003
C       1.580094   -3.304433    0.690532
O       1.473220   -3.223991   -0.724037
C       1.231858   -0.832619   -0.003350
O       2.357787   -0.403628   -0.063994
H       0.926997    1.722708   -0.157208
H      -0.794073    1.852952   -0.134173
H      -1.237646   -2.682531    0.861724
H      -1.148280   -2.648967   -0.898606
H       2.550926   -3.030422    1.100640
H       1.077779   -4.150714    1.157359
