23

C       0.226142    1.546610   -0.229680
C      -0.094255    0.067774    0.052488
C       0.615035   -0.480679    1.255677
C       0.057163   -0.922495    2.385236
C       1.072170   -1.378182    3.407584
C       0.724184   -2.698284    4.089526
O      -0.454201   -2.499163    4.858149
C       2.380241   -1.447864    2.577245
C       2.129612   -0.557340    1.336742
H       1.295524    1.697595   -0.408074
H      -0.311747    1.899162   -1.115161
H      -0.063458    2.176865    0.617199
H      -1.175591   -0.053041    0.182382
H       0.181881   -0.523633   -0.832703
H      -1.007323   -0.941828    2.591102
H       1.156857   -0.627061    4.207664
H       0.574593   -3.475833    3.322484
H       1.565153   -3.018320    4.726952
H      -0.705012   -3.340496    5.250016
H       3.262613   -1.148755    3.149057
H       2.542450   -2.482909    2.252637
H       2.581724   -0.966999    0.424850
H       2.562604    0.444668    1.465787
