21

C      -0.046411    1.532267   -0.093298
C       0.029898    0.019571   -0.017922
C       1.375986   -0.671907   -0.223741
C       0.717442   -0.686398    1.133683
C       1.325702    0.054976    2.297795
O       0.154039   -1.881798    1.631176
C      -0.777553   -2.516652    0.791475
O      -1.761498   -1.643971    0.328814
C      -1.212524   -0.689344   -0.571972
H       0.875872    2.011487    0.243777
H      -0.218719    1.853988   -1.127893
H      -0.870671    1.920617    0.516046
H       1.393889   -1.585696   -0.809774
H       2.256132   -0.049177   -0.349444
H       1.852487    0.955181    1.976324
H       0.553176    0.337968    3.019578
H       2.042621   -0.595517    2.808751
H      -0.265804   -3.002745   -0.060626
H      -1.269322   -3.275607    1.403615
H      -2.009046    0.038838   -0.745373
H      -0.987888   -1.177238   -1.534511
