12

N       0.055289    1.376891   -0.080667
C      -0.028035    0.023350   -0.029037
C      -1.162371   -0.727950   -0.010451
C      -1.102726   -2.167160    0.001681
O      -2.021887   -2.939045    0.014640
O       0.192665   -2.739773   -0.000471
N       1.343524   -1.992611   -0.007734
C       1.212089   -0.726911   -0.022894
F       2.334580   -0.008620   -0.025279
H       0.946954    1.813692    0.077238
H      -0.768490    1.933942    0.069064
H      -2.151489   -0.287635   -0.008780
