21

O      -0.068310    1.426070    0.130955
C       0.004271    0.007784    0.001904
C       0.876240   -0.552785    1.145346
O       0.872027   -1.961593    1.244007
C      -0.236293   -2.508748    1.943738
C      -1.605742   -2.209735    1.321603
C      -1.529559   -2.050875   -0.224206
C      -1.433377   -0.511579   -0.014285
C      -2.052018   -0.720397    1.395388
H       0.827084    1.778463    0.094722
H       0.469793   -0.266488   -0.959162
H       1.919737   -0.261520    0.969338
H       0.561303   -0.084425    2.090289
H      -0.058303   -3.589219    1.938416
H      -0.223012   -2.170336    2.993850
H      -2.322700   -2.939214    1.711308
H      -0.697553   -2.541831   -0.734474
H      -2.467668   -2.329556   -0.710210
H      -2.000375    0.112473   -0.709251
H      -3.141360   -0.632882    1.367832
H      -1.679756   -0.105141    2.218934
