18

O       0.144917    1.316614   -0.353844
C       0.085609   -0.005149    0.162212
C      -1.326022   -0.502093    0.255357
C      -2.367023   -0.148329    1.327736
C      -2.979474   -1.594401    1.165412
C      -4.368108   -1.704879    0.759342
C      -5.511083   -1.766098    0.388439
C      -1.909085   -1.875080    0.078617
N      -1.980564   -0.897334   -0.994641
H      -0.249144    1.282318   -1.232982
H       0.671223   -0.705292   -0.451753
H       0.543209    0.037701    1.156293
H      -1.939593   -0.000119    2.321830
H      -3.031085    0.688013    1.095489
H      -2.794808   -2.188766    2.064974
H      -6.523084   -1.834830    0.074075
H      -1.443255   -2.834576   -0.116009
H      -2.918825   -0.514782   -1.105148
