19

C       0.286008    1.317959   -0.285662
O       0.105871   -0.059999    0.004216
C      -1.212856   -0.440356    0.021844
C      -1.775290   -1.812247    0.036573
C      -2.308624   -1.650813    1.509567
C      -2.265858   -0.160100    1.127367
C      -3.391924    0.365419    0.604445
C      -3.352858    0.263790   -0.919974
C      -2.171495   -0.709578   -1.075392
H       1.358799    1.515923   -0.235527
H      -0.079101    1.567325   -1.291799
H      -0.232919    1.951868    0.445601
H      -1.287451   -2.708839   -0.338476
H      -3.286857   -2.056943    1.781743
H      -1.541435   -2.009108    2.204547
H      -4.348454    0.308257    1.118507
H      -4.319198   -0.139822   -1.247299
H      -3.183893    1.181971   -1.501429
H      -1.807247   -0.993880   -2.060930
