21

C       0.156003    1.353500    0.858682
C      -0.164863   -0.106595    0.532441
C      -1.595408   -0.434645    0.118031
C      -2.764115    0.343358    0.688028
C      -2.378499    0.484495   -0.771868
N      -1.680718   -1.859271   -0.156704
C      -2.043890   -2.755034    0.937166
C      -2.959754   -2.546844   -0.218914
H       1.217279    1.454423    1.105459
H      -0.044153    2.019804    0.013542
H      -0.412386    1.719484    1.719265
H       0.490938   -0.456252   -0.273844
H       0.077917   -0.727580    1.405136
H      -3.687761   -0.174597    0.921951
H      -2.557274    1.173639    1.353428
H      -1.928968    1.414116   -1.102287
H      -3.029037    0.021543   -1.506600
H      -1.456673   -3.664734    1.026618
H      -2.343640   -2.304164    1.881879
H      -3.878075   -1.995157   -0.031069
H      -3.042668   -3.296389   -1.001522
