19

C       0.015105    1.584596    0.068778
C       0.065101    0.073318    0.050240
C       1.293276   -0.759381   -0.292086
C       2.535253   -0.135805    0.353504
O       1.864630   -0.081617    1.649841
C       0.716109   -0.768153    1.110135
C       0.080488   -1.805107    1.976082
C       3.711187   -0.989828    0.377356
C       4.686739   -1.691652    0.371877
H       0.846125    1.998701    0.644835
H       0.051115    1.999951   -0.943981
H      -0.911594    1.930692    0.538430
H      -0.830903   -0.403066   -0.345799
H       1.314686   -1.522531   -1.058286
H       2.808700    0.869986    0.011018
H      -0.349429   -1.344951    2.873105
H      -0.725915   -2.310817    1.437021
H       0.814305   -2.551488    2.294866
H       5.550916   -2.309171    0.376744
