12

F      -0.012288    0.079830   -0.118008
C      -0.041510    1.411732   -0.015562
F       1.212223    1.861740   -0.120244
F      -0.738700    1.889528   -1.057178
C      -0.696616    1.863552    1.289630
C      -0.002446    1.388032    2.471929
C       0.568247    0.997140    3.462791
C       1.211292    0.556547    4.577868
C       1.781161    0.166190    5.567728
H      -0.732031    2.958684    1.269273
H      -1.731672    1.503970    1.271111
H       2.283071   -0.177694    6.438049
