18

C      -0.142681    1.468206   -0.032064
C       0.000979   -0.018412   -0.083075
C       0.934711   -0.856514   -0.960322
C       0.117707   -2.083846   -0.484164
C       0.402757   -2.094358    1.022681
N      -0.320923   -0.787631    1.169344
C      -1.056862   -1.079673   -0.119260
C      -2.453883   -1.070386   -0.313566
C      -3.641345   -1.078221   -0.514235
H       0.750994    1.928055    0.404563
H      -0.282967    1.881813   -1.035967
H      -1.001610    1.746749    0.583514
H       0.767421   -0.632271   -2.016931
H       2.009002   -0.851215   -0.743620
H       0.042222   -2.987498   -1.084852
H      -0.152912   -2.857553    1.572515
H       1.449218   -2.083310    1.349331
H      -4.689722   -1.080902   -0.681477
