20

C      -0.023094    1.562974   -0.103810
C       1.505895    1.572927    0.057387
N       2.151828    0.797734   -1.003315
C       1.544989    0.069869    0.095405
C       2.317818   -0.958619    0.867590
O       1.609914   -1.373754    2.027488
C       0.282319   -1.784714    1.739519
C      -0.574452   -0.600275    1.278365
C       0.009397   -0.001662   -0.009260
H      -0.560153    2.017385    0.732404
H      -0.395375    2.000407   -1.036565
H       2.104379    2.309911    0.581137
H       1.600128    0.764754   -1.859944
H       2.512284   -1.828956    0.214997
H       3.283414   -0.568847    1.200910
H       0.285169   -2.581544    0.974886
H      -0.109024   -2.212836    2.667018
H      -1.616914   -0.908515    1.139416
H      -0.557274    0.147325    2.080026
H      -0.360604   -0.546558   -0.887059
