20

C       0.757536    1.524505   -0.021469
C       0.082450    0.150179    0.014421
N       0.465270   -0.710412   -1.093166
C       1.360594   -1.704395   -0.797908
O       1.884086   -2.446740   -1.600087
C       1.587224   -1.683277    0.718657
C       3.028652   -1.263728    1.042303
C       0.481261   -0.742070    1.239508
O       0.919530   -0.019692    2.372359
H       1.846571    1.435928   -0.024692
H       0.455154    2.070965   -0.920934
H       0.470132    2.119978    0.849364
H      -1.005803    0.298121    0.006840
H       0.263924   -0.489455   -2.056705
H       1.436054   -2.698280    1.096978
H       3.262661   -0.266315    0.659862
H       3.190869   -1.254142    2.121756
H       3.718273   -1.974125    0.579457
H      -0.394925   -1.353049    1.496775
H       0.156073    0.396051    2.784417
