19

C       0.003123    1.495466    0.152086
C       1.380185    2.150820   -0.052326
O       1.816489    2.312467   -1.399861
C       1.884389    1.131941   -2.199009
O       1.920256   -0.046299   -1.434205
C       0.574847   -0.538532   -1.311886
C      -0.021733   -0.038062    0.015655
C      -0.120769    0.028588   -2.525887
C       0.633160    0.989112   -3.045199
H      -0.328433    1.749916    1.166475
H      -0.713210    1.958557   -0.535035
H       1.346865    3.175404    0.330556
H       2.134755    1.601701    0.527592
H       2.818974    1.208548   -2.764635
H       0.626028   -1.633254   -1.316082
H       0.561658   -0.486720    0.828462
H      -1.049033   -0.409242    0.121379
H      -1.111712   -0.277078   -2.836830
H       0.406657    1.644751   -3.874939
