19

O      -0.027807    1.436789   -0.216359
C       0.040800    0.034093   -0.020107
C      -1.382749   -0.507241   -0.025992
C      -1.433491   -2.035977    0.154090
C      -2.824284   -2.588904    0.174413
C      -3.621246   -3.046976    1.206904
C      -4.840791   -3.409826    0.596622
N      -4.820693   -3.200867   -0.715842
N      -3.588460   -2.702181   -0.944933
H       0.866778    1.788885   -0.198599
H       0.628219   -0.453361   -0.816591
H       0.527858   -0.213911    0.937655
H      -1.953368   -0.021217    0.772562
H      -1.861285   -0.219917   -0.969505
H      -0.852179   -2.516604   -0.644868
H      -0.944049   -2.311131    1.094441
H      -3.350934   -3.109244    2.248926
H      -5.728282   -3.817565    1.058353
H      -3.331085   -2.463323   -1.887902
