19

C       0.802322    1.532003   -0.304730
N       0.163328    0.240475   -0.061081
C       1.029903   -0.907066    0.190392
C       0.193666   -0.326295    1.281751
C       0.786187    0.386568    2.486795
C       0.805483   -0.416018    3.809956
O       2.254713   -0.250861    3.898885
C       2.291071    0.438230    2.709267
N       3.263725    0.922865    2.081954
H       1.744932    1.684866    0.238877
H       1.005058    1.614946   -1.376994
H       0.102575    2.331513   -0.037731
H       0.739434   -1.838218   -0.289909
H       2.101497   -0.729081    0.247822
H      -0.734375   -0.837166    1.541717
H       0.330341    1.375040    2.605688
H       0.306336    0.036186    4.669549
H       0.540249   -1.472824    3.722967
H       4.146092    0.755031    2.568008
