16

C       0.177517    1.201471   -0.090591
O      -0.180780    0.130829    0.773354
C      -1.357973   -0.494707    0.441889
C      -1.427256   -1.809256    0.077504
O      -0.476563   -2.766758   -0.078539
N      -2.752755   -2.132226   -0.115533
C      -3.517890   -1.016268    0.119664
O      -4.862727   -1.151121   -0.035332
C      -2.704502    0.027085    0.471138
H       1.139296    1.584167    0.260045
H       0.273395    0.861303   -1.130463
H      -0.562777    2.011248   -0.055727
H       0.356591   -2.364891    0.194892
H      -3.105692   -3.038819   -0.366669
H      -5.274075   -0.309265    0.180796
H      -3.010704    1.029057    0.726236
