21

O      -0.369541    1.232605    0.243010
C       0.031555   -0.092781    0.053218
C      -0.387621   -1.038200    1.135071
C       1.089824   -0.761517    0.921141
C       1.889511   -1.745625    0.077361
C       1.211537   -1.769691   -1.314699
C       0.069871   -2.788835   -1.617801
C      -0.900108   -1.607632   -1.914479
C       0.167929   -0.609664   -1.376179
H       0.284246    1.802463   -0.177589
H      -0.838644   -0.566906    2.001438
H      -0.800661   -2.010354    0.889349
H       1.598113   -0.192775    1.692609
H       2.924270   -1.394692   -0.009202
H       1.934206   -2.748238    0.520650
H       1.952646   -1.747443   -2.116969
H       0.257866   -3.467990   -2.453031
H      -0.215300   -3.396695   -0.754581
H      -1.097955   -1.481279   -2.981819
H      -1.857365   -1.610777   -1.387668
H       0.398115    0.232577   -2.036850
