21

C      -0.089201   -0.528720   -2.342523
C      -0.363430   -1.634709   -1.355816
O       0.731206   -2.485905   -0.990496
C       0.114677   -1.688498    0.040682
C       0.985689   -0.602559    0.635912
C      -0.683665   -2.511805    1.042965
C       0.199134   -3.367829    1.924903
C       0.539421   -3.003879    3.307274
O      -0.441831   -4.003582    3.032542
H       0.834423    0.006924   -2.117753
H       0.001144   -0.944545   -3.351609
H      -0.917890    0.187789   -2.350556
H      -1.284509   -2.185588   -1.563477
H       1.570946   -0.090107   -0.128090
H       0.371853    0.137596    1.161114
H       1.684732   -1.029999    1.361450
H      -1.297563   -1.855478    1.671020
H      -1.366587   -3.172379    0.497495
H       0.893350   -4.011000    1.383056
H       1.464624   -3.364931    3.754756
H       0.154144   -2.075412    3.728374
