16

N      -0.111214    1.481547    0.183048
C      -0.007384    0.048862    0.043353
C       0.876037   -0.513265    1.062658
N       1.593331   -0.987818    1.835140
C      -1.351841   -0.694192   -0.029114
N      -2.001652   -0.194191   -1.262749
C      -1.027255   -1.313498   -1.340528
C       0.329056   -0.610017   -1.414020
O       0.525883    0.282958   -2.458997
H       0.763848    1.926062   -0.078224
H      -0.826384    1.810183   -0.458379
H      -1.931356   -1.072560    0.802485
H      -2.942312   -0.580644   -1.302346
H      -1.313207   -2.276143   -1.744059
H       1.187774   -1.280091   -1.362735
H      -0.330932    0.702956   -2.617279
