17

C      -0.041510    1.459827   -0.109698
C      -0.021312   -0.033713   -0.051087
C      -0.095240   -0.879158   -1.084273
C      -0.037100   -2.320488   -0.672007
C       1.098117   -3.144356   -1.269460
O       1.836184   -2.752177   -2.133355
C       0.093849   -2.246089    0.869152
O       0.187400   -3.192525    1.603557
C       0.098389   -0.766461    1.264189
H       0.871167    1.883103    0.328198
H      -0.125643    1.819511   -1.138421
H      -0.881330    1.867436    0.467163
H      -0.166846   -0.578749   -2.122333
H      -0.955579   -2.889912   -0.889970
H       1.189876   -4.159625   -0.828393
H       1.017074   -0.527603    1.816844
H      -0.730415   -0.563547    1.955895
