25

C       0.103553    1.481337    0.244683
C       0.027874   -0.053480    0.154075
C       0.806337   -0.711951    1.305637
C      -1.432211   -0.569574    0.056278
C      -2.271335    0.032278    1.197282
C      -2.087006   -0.628113   -1.382685
C      -1.148781   -1.825426   -1.728272
C      -1.670819   -2.096769   -0.286769
C      -3.073056   -1.706496   -0.847885
H       1.143638    1.814256    0.161814
H      -0.462485    1.959329   -0.562143
H      -0.284474    1.860032    1.195351
H       0.555288   -0.321093   -0.764343
H       0.384969   -0.465192    2.285954
H       0.812612   -1.802555    1.211133
H       1.847600   -0.371926    1.307474
H      -2.559620    1.064746    0.974278
H      -3.185599   -0.522186    1.407196
H      -1.700169    0.053405    2.129797
H      -2.332904    0.221353   -2.024820
H      -1.525382   -2.503980   -2.497999
H      -0.086261   -1.643520   -1.876620
H      -1.436694   -2.957226    0.344409
H      -3.852848   -1.398938   -0.154290
H      -3.479637   -2.386669   -1.600682
