21

C      -0.352285    1.600066    0.350761
C      -0.169867    0.099014    0.170740
C       0.274020   -0.393217   -1.214757
O       1.595063    0.125866   -1.454575
C       1.461213   -1.062588   -0.662741
C       2.217291   -2.272350   -1.110514
O       1.634177   -3.404969   -0.480147
C       1.113512   -0.623066    0.771282
C       2.156545    0.190476    1.524300
H       0.500197    2.150400   -0.055604
H      -1.253764    1.944937   -0.167939
H      -0.458817    1.864715    1.408010
H      -1.069706   -0.435986    0.491089
H      -0.323790   -0.626426   -2.089540
H       2.165804   -2.333009   -2.207994
H       3.278924   -2.165224   -0.834506
H       2.201189   -4.163505   -0.645785
H       0.802194   -1.491875    1.357274
H       2.543547    1.001919    0.902720
H       1.736902    0.628199    2.436131
H       3.001344   -0.440262    1.823178
