17

C       0.008526    1.486506    0.377955
C       0.023821    0.046871   -0.155888
C      -1.351975   -0.559645   -0.205805
O      -1.991456   -0.871784    1.054282
C      -1.731968   -1.939521    0.118869
C      -2.942988   -2.288455   -0.699149
C      -3.335907   -1.237534   -1.430310
C      -2.393517   -0.095491   -1.238597
O      -2.409185    0.970017   -1.806766
H       1.023815    1.890914    0.420845
H      -0.595038    2.129414   -0.266381
H      -0.412998    1.515156    1.387036
H       0.448604    0.025716   -1.166581
H       0.659903   -0.584034    0.474697
H      -1.022296   -2.692162    0.447495
H      -3.433597   -3.253158   -0.648569
H      -4.204978   -1.168212   -2.071466
