14

O      -0.000336    1.402955    0.015329
C      -0.003117    0.038061    0.005978
C      -1.144482   -0.692723    0.006204
N      -1.078242   -2.053417   -0.003437
C       0.122024   -2.781805   -0.014067
N       0.044218   -4.058131   -0.022752
N       1.286873   -2.020460   -0.014101
C       1.208265   -0.730479   -0.004804
O       2.338859    0.005770   -0.005097
H       0.919851    1.690674    0.013193
H      -2.127256   -0.239720    0.013863
H      -1.918629   -2.610146   -0.003551
H       0.984286   -4.446707   -0.029848
H       3.078171   -0.619493   -0.012715
