18

O      -0.254384    1.508164   -0.207889
C       0.070034    0.130244    0.001748
C      -1.193517   -0.784088    0.174477
C      -1.399375   -1.595271   -1.147614
C      -0.061871   -1.410465   -1.788906
C       0.759084   -0.502581   -1.170157
C       1.966621   -0.423137   -1.922506
C       1.826959   -1.301657   -2.974067
N       0.581360   -1.900041   -2.888961
H      -0.497537    1.599258   -1.135538
H       0.662888    0.135472    0.922223
H      -1.021816   -1.482240    0.999310
H      -2.059787   -0.172274    0.436664
H      -1.652796   -2.641487   -0.940742
H      -2.217657   -1.192653   -1.759669
H       2.833457    0.189337   -1.726946
H       2.505258   -1.560160   -3.771880
H       0.230509   -2.591273   -3.528625
