18

C      -0.128143    1.478591    0.040837
C       0.011867   -0.025057    0.016887
O      -1.262490   -0.630109   -0.050470
C      -1.144943   -1.966586    0.437325
C      -0.117868   -1.888496    1.583557
C       0.827112   -0.803859    1.094337
O       1.749694   -1.277657    0.056131
C       1.061844   -0.610698   -0.940503
N       1.272050   -0.537547   -2.172684
H       0.848911    1.958678    0.140517
H      -0.582533    1.819121   -0.893212
H      -0.766890    1.785581    0.873702
H      -2.137755   -2.293855    0.751996
H      -0.790729   -2.637449   -0.357838
H      -0.598555   -1.555865    2.509377
H       0.392997   -2.834796    1.775072
H       1.367685   -0.251919    1.863564
H       2.092309   -1.081235   -2.448824
