17

C      -0.008016    1.454682    0.021923
C      -0.043737   -0.041541    0.032966
C       0.438564   -1.047242   -1.007800
C       1.158902   -0.951428    0.307484
N       0.560078   -2.188285    0.898503
C      -0.523897   -1.666519    1.814032
C      -1.147888   -0.988589    0.580435
C      -0.437257   -2.087731   -0.278051
H       0.935931    1.820652   -0.397379
H      -0.820245    1.878334   -0.579843
H      -0.097436    1.861704    1.036492
H       0.783708   -0.936932   -2.026792
H       2.154023   -0.598830    0.548436
H      -1.113252   -2.508126    2.191175
H      -0.174317   -1.049155    2.647759
H      -2.193675   -0.694304    0.488782
H      -0.884706   -3.001434   -0.664166
