17

C      -0.046974    1.532986    0.028996
C       0.014013    0.034401    0.013462
C      -0.882777   -0.883532    0.802299
C       0.605418   -0.933917    1.031835
C       1.346724   -1.678223   -0.119439
N       0.347407   -2.156803   -1.121907
C       0.753991   -0.744652   -1.120763
C       2.661145   -2.212153   -0.057969
N       3.735091   -2.642200    0.005318
H       0.930669    1.977027   -0.192017
H      -0.760789    1.910734   -0.712971
H      -0.363877    1.898442    1.010581
H      -1.429066   -0.386635    1.598500
H      -1.400706   -1.710155    0.333668
H       1.082022   -0.719547    1.978791
H       0.862918   -2.632552   -1.862698
H       1.233377   -0.288576   -1.977700
