17

C      -0.117223    1.546248    0.017083
C       0.061774    0.027682   -0.022361
C       0.885607   -0.515856   -1.207176
C       1.952846   -1.375103   -0.564762
N       2.801586   -2.083866   -1.353409
C       1.896681   -1.342580    0.790822
C       0.807149   -0.487835    1.234524
O       0.495074   -0.191801    2.371205
H       0.850958    2.056393   -0.044106
H      -0.741090    1.902181   -0.808993
H      -0.586567    1.832752    0.961695
H      -0.929188   -0.441928   -0.011553
H       0.290243   -1.103167   -1.916175
H       1.352939    0.292560   -1.785609
H       2.878752   -1.846444   -2.328076
H       3.610984   -2.520088   -0.943427
H       2.562725   -1.855433    1.472619
