21

C      -0.019084    1.285511   -0.402564
O      -0.136343    0.173293    0.461507
C      -1.310670   -0.543864    0.261109
C      -1.423879   -1.639176   -0.774770
C      -0.130861   -2.231444   -1.315769
O       0.685196   -2.540543   -0.197761
C      -0.133211   -2.764942    0.950230
C       0.665772   -2.403793    2.195197
C      -1.411593   -1.968568    0.711286
H       0.930212    1.773730   -0.171691
H      -0.022282    0.983895   -1.459264
H      -0.838020    2.004961   -0.246268
H      -2.213849    0.055749    0.400572
H      -2.318832   -1.715345   -1.382515
H      -0.365695   -3.133914   -1.904383
H       0.440603   -1.551205   -1.957428
H      -0.418098   -3.831374    0.997510
H       0.930327   -1.345299    2.175823
H       0.078763   -2.610386    3.095946
H       1.581525   -3.000374    2.240445
H      -2.303390   -2.283846    1.241577
