19

C      -0.013830    1.530792   -0.082095
C       0.054309    0.014432   -0.009890
O       0.678021   -0.451316   -1.192244
C       0.718472   -1.869068   -1.274868
C       1.480088   -2.460288   -0.088955
N       0.950541   -1.999799    1.202187
C       0.800656   -0.538207    1.236866
C       2.128957    0.084658    1.381088
N       3.160090    0.593588    1.491537
H       0.990177    1.958645   -0.140326
H      -0.571452    1.832211   -0.972113
H      -0.518063    1.938352    0.799632
H      -0.967815   -0.403353    0.052443
H      -0.309179   -2.272761   -1.301880
H       1.205537   -2.108874   -2.224848
H       1.444674   -3.553915   -0.109686
H       2.532609   -2.160157   -0.148080
H       0.036463   -2.412585    1.365075
H       0.223678   -0.279644    2.132760
