19

C      -0.051673    1.476110    0.004190
C      -0.025503   -0.028418   -0.059837
C       0.272400   -0.821173   -1.359745
C      -0.457885   -1.979911   -0.629180
O      -1.099420   -3.023160   -1.284687
C       0.320984   -2.255165    0.688237
C      -0.654549   -1.479676    1.546077
C       0.635887   -0.822698    1.102672
C      -1.280970   -0.953087    0.221795
H       0.951626    1.895837   -0.139212
H      -0.702087    1.898110   -0.769432
H      -0.418246    1.820561    0.978144
H      -0.326349   -0.455452   -2.200758
H       1.315489   -0.955758   -1.665967
H      -0.430787   -3.642224   -1.598805
H       0.942526   -3.103935    0.945717
H      -1.047611   -1.680480    2.533310
H       1.504186   -0.552209    1.691448
H      -2.310501   -0.675622    0.009713
