25

C      -0.526787    1.418494    0.034661
C       0.139694    0.043423   -0.033421
C       1.182783   -0.098660   -1.155853
C       1.912896   -1.396785   -0.794327
C       2.091719   -1.286512    0.730811
C       0.876378   -0.455733    1.264368
C       1.370315    0.686825    2.166036
C      -0.083811   -1.351707    2.056533
O       0.568916   -1.820464    3.228694
H       0.203626    2.218882    0.188743
H      -1.054331    1.630833   -0.901532
H      -1.261919    1.477673    0.844494
H      -0.652365   -0.689740   -0.248637
H       0.728917   -0.109720   -2.152084
H       1.881638    0.748783   -1.127458
H       1.280368   -2.256796   -1.048297
H       2.860840   -1.528839   -1.324141
H       2.165178   -2.255367    1.231145
H       3.022094   -0.752516    0.952730
H       2.028506    1.368364    1.617316
H       0.541421    1.274330    2.574894
H       1.932260    0.277353    3.008770
H      -0.991497   -0.780286    2.314460
H      -0.396810   -2.196317    1.421116
H      -0.043532   -2.383321    3.710329
