19

C      -0.047614    1.453334   -0.143316
C      -0.876978    0.219280   -0.441847
O      -0.460981   -0.817382    0.451058
C      -1.102894   -1.989123    0.316890
C      -2.108160   -2.452935   -0.508028
C      -2.298179   -3.801211   -0.099123
C      -3.269085   -4.797042   -0.650274
N      -1.481175   -4.138034    0.891655
N      -0.756033   -3.011507    1.131983
H      -0.339828    2.269687   -0.809965
H      -0.197113    1.778849    0.889788
H       1.016362    1.248970   -0.290981
H      -1.948071    0.412571   -0.295682
H      -0.733718   -0.117756   -1.477147
H      -2.626791   -1.913972   -1.282500
H      -3.099372   -4.974877   -1.718143
H      -3.163425   -5.746701   -0.121418
H      -4.303614   -4.452943   -0.539912
H      -0.052795   -3.001932    1.849905
