20

C       0.058102    1.513670    0.131663
C      -0.142033    0.037772   -0.209212
C       0.783103   -0.455245   -1.308060
O       1.425756    0.306913   -1.998201
C       0.875731   -1.970027   -1.523977
C      -0.488984   -2.594404   -1.877851
N       1.869928   -2.215402   -2.547870
C       2.459224   -3.422776   -2.716853
O       2.162533   -4.431233   -2.105723
H       1.068317    1.696240    0.508014
H      -0.078526    2.138113   -0.753845
H      -0.656044    1.829999    0.896435
H      -0.012780   -0.602983    0.672261
H      -1.172457   -0.142673   -0.545215
H       1.214988   -2.424676   -0.582441
H      -0.344336   -3.662695   -2.046600
H      -1.206423   -2.466955   -1.062967
H      -0.898833   -2.142596   -2.786255
H       2.233164   -1.389788   -3.005087
H       3.250196   -3.395788   -3.491990
