20

C       0.059446    1.462717   -0.232337
C      -0.025033   -0.017121    0.092068
C      -1.145065   -0.710759   -0.664567
O       1.231439   -0.723763    0.116530
C       0.537021   -0.561718    1.356395
C       1.216540    0.308234    2.396715
C      -0.035772   -1.855319    1.953055
C       0.992769   -2.684576    2.582572
N       1.805865   -3.333297    3.085607
H       0.881385    1.961509    0.278923
H       0.206637    1.591792   -1.309810
H      -0.875349    1.966398    0.036836
H      -1.089167   -0.442542   -1.724701
H      -1.082336   -1.797340   -0.603371
H      -2.125368   -0.390421   -0.295173
H       1.729798    1.154176    1.942515
H       0.488539    0.686643    3.122829
H       1.961490   -0.278677    2.942894
H      -0.786260   -1.604435    2.712649
H      -0.534918   -2.454888    1.191456
