15

C      -0.000116    1.579619   -0.017033
C       0.032049    0.050746    0.017530
N       0.742130   -0.472876    1.172835
C       2.065256   -0.807772    1.297716
N       2.372115   -1.218976    2.489171
N       1.181609   -1.137616    3.174736
C       0.126746   -0.679996    2.417092
O      -1.036965   -0.495282    2.711458
H       1.010581    1.996731   -0.061664
H      -0.552887    1.923951   -0.896226
H      -0.497882    1.966376    0.875885
H      -0.985627   -0.345405    0.073201
H       0.504143   -0.355179   -0.882472
H       2.770613   -0.742728    0.483520
H       1.134439   -1.409514    4.140628
