18

O       0.110580   -0.013541   -0.069113
C      -0.004257    1.197028   -0.016062
C      -1.195636    2.024652    0.089492
C      -0.796757    3.323168    0.075472
N       0.550807    3.478950   -0.108508
C       1.195631    2.178924   -0.061536
C       2.255283    1.886570    1.046158
C       3.070252    1.090198   -0.006659
C       2.264215    1.800383   -1.126094
H      -2.208438    1.658864    0.145981
H      -1.419146    4.206013    0.164505
H       1.024794    4.295845    0.243385
H       2.764217    2.806566    1.352878
H       1.903316    1.357589    1.934110
H       4.153284    1.225214   -0.003981
H       2.830968    0.027437    0.033806
H       1.914498    1.193319   -1.963113
H       2.769360    2.692461   -1.507170
