13

N      -0.146420    1.357371   -0.246349
C      -0.023096   -0.055843    0.048243
C       0.898312   -0.401639    1.209363
O       1.509255    0.385247    1.878925
O       0.933421   -1.762436    1.387216
C       1.717076   -2.267107    2.397254
N       1.743711   -3.514151    2.552668
H      -0.471393    1.848694    0.581409
H       0.772552    1.744084   -0.441595
H      -1.007898   -0.485183    0.268421
H       0.338388   -0.597602   -0.833995
H       2.237157   -1.490380    2.958197
H       2.358669   -3.751741    3.329843
