21

C      -0.064742    1.552951   -0.020992
C       0.042345    0.027297   -0.020661
C       0.671603   -0.528901   -1.306530
C       0.769488   -2.059396   -1.239881
C       1.475336   -2.488536    0.046764
O       0.846598   -1.939013    1.201329
C       0.813509   -0.514021    1.209780
C       2.162527    0.060328    1.337203
C       3.267043    0.523804    1.445838
H       0.922220    2.018064   -0.104082
H      -0.672754    1.893583   -0.865298
H      -0.532813    1.922883    0.897917
H      -0.965859   -0.397806    0.074249
H       0.081585   -0.215911   -2.175281
H       1.673353   -0.096930   -1.431465
H      -0.237345   -2.494881   -1.256430
H       1.310789   -2.457469   -2.105880
H       1.435659   -3.572694    0.183830
H       2.533923   -2.188334    0.018019
H       0.250664   -0.258433    2.115419
H       4.241641    0.932119    1.554242
