21

O       0.066638    1.423745   -0.203985
C       0.042633    0.035473   -0.012360
C       0.032484   -0.602868    1.399203
C      -1.480027   -0.170021    1.508754
C      -1.314547   -0.757842    0.071537
C      -2.059931   -1.308700   -1.118077
C      -1.025578   -2.366420   -1.653604
C      -0.010484   -2.719888   -0.492855
C      -0.515665   -1.904762    0.709968
H      -0.559472    1.839993    0.396418
H       0.787241   -0.355316   -0.705671
H       0.788020   -0.515100    2.182240
H      -2.099509   -0.750348    2.197798
H      -1.698432    0.896017    1.627109
H      -2.990702   -1.796538   -0.807009
H      -2.312366   -0.565776   -1.880349
H      -1.538203   -3.259755   -2.020295
H      -0.481899   -1.950363   -2.506539
H      -0.024172   -3.789276   -0.267982
H       1.012956   -2.482353   -0.793471
H      -1.104066   -2.521534    1.396387
