17

C      -0.867004    0.835284   -0.834170
N       0.139418    0.263120    0.056215
C      -0.398824   -0.686189    1.009066
C      -0.872093   -2.018354    0.449718
N      -0.318232   -2.451503   -0.688952
C      -0.750081   -3.639910   -1.106354
N      -1.655655   -4.404573   -0.497035
C      -2.132788   -3.872813    0.630496
N      -1.789037   -2.697895    1.151093
H      -0.379830    1.522200   -1.531965
H      -1.432843    0.095425   -1.424243
H      -1.584468    1.415596   -0.243078
H       0.848381   -0.203616   -0.500069
H       0.369634   -0.917470    1.761235
H      -1.231594   -0.235801    1.558748
H      -0.322984   -4.022629   -2.031299
H      -2.875624   -4.454498    1.172809
