12

N      -0.083436    1.479457   -0.120636
C      -0.057116    0.072578   -0.049423
C      -1.102726   -0.829029   -0.001580
N      -0.548217   -2.072003   -0.010220
N       0.802717   -2.045879   -0.072720
C       1.090274   -0.754698   -0.092269
O       2.359532   -0.283875   -0.153723
H       0.851170    1.855453   -0.015682
H      -0.675592    1.894428    0.588802
H      -2.169707   -0.678819    0.037803
H      -1.017127   -2.957917    0.032116
H       2.947208   -1.048546   -0.178207
