17

O       0.547678    0.916384   -0.577957
C       0.168842   -0.173181    0.192356
C      -0.072892   -0.022205    1.717875
C      -1.248190   -1.021399    1.606619
C      -1.295913   -0.770010    0.041797
C      -2.339513    0.296304   -0.239838
O      -2.144197    1.486010   -0.147309
C      -1.499172   -1.918805   -0.813206
C      -1.669534   -2.868156   -1.532177
H      -0.135807    1.590947   -0.458340
H       0.884242   -0.974134   -0.011578
H       0.751503   -0.284585    2.382948
H      -0.420013    0.985595    1.958073
H      -0.959656   -2.055425    1.801732
H      -2.163209   -0.798007    2.158894
H      -3.339073   -0.097725   -0.517515
H      -1.809306   -3.708529   -2.166446
