20

C       0.167048    1.303111   -0.111709
C      -0.033900   -0.169944    0.263722
C      -1.466487   -0.634721    0.098367
O      -2.392733   -0.047738    0.978717
C      -1.974797   -1.015763   -1.284469
C      -1.780320   -2.070275   -0.231171
O      -0.761523   -2.992364   -0.449635
C      -0.381465   -3.679112    0.728471
H       1.208421    1.607262    0.028800
H      -0.098500    1.486464   -1.158508
H      -0.449536    1.958729    0.513451
H       0.613242   -0.807782   -0.346066
H       0.259387   -0.321334    1.310040
H      -2.572716    0.846330    0.668073
H      -2.992158   -0.751964   -1.551056
H      -1.260640   -1.008971   -2.101176
H      -2.675449   -2.475281    0.243383
H       0.403808   -4.385362    0.449052
H       0.005152   -2.993761    1.495089
H      -1.227056   -4.237292    1.157413
