15

C      -0.001384    1.455434   -0.082587
C       1.329919    0.770035    0.046427
C       0.017640   -0.038244    0.050638
C       0.443924   -0.690545   -1.283230
O       0.029708   -0.022293   -2.502818
C       1.308833    0.658779   -2.611769
C       1.776730    0.076555   -1.263119
H      -0.321590    1.987832    0.807180
H      -0.325528    1.907448   -1.013411
H       1.994924    0.983548    0.874280
H      -0.474002   -0.554817    0.866189
H       0.359749   -1.777954   -1.345705
H       1.874156    0.295345   -3.478958
H       1.197828    1.747176   -2.683195
H       2.739221   -0.430164   -1.220735
