16

O       0.009717   -0.046643   -0.009584
C      -0.028708    1.170548    0.004400
N      -1.209963    1.858764   -0.067476
C      -1.396624    3.300015   -0.039377
C      -0.124229    3.997449    0.400297
O       0.292832    3.538910    1.721548
C       1.493494    3.022049    1.159439
C       1.182986    3.492899   -0.227013
C       1.216382    2.005349    0.065939
H      -2.026084    1.266476   -0.100317
H      -1.695767    3.686504   -1.026092
H      -2.196921    3.552543    0.667201
H      -0.244382    5.084270    0.390340
H       2.391405    3.028701    1.764658
H       1.777015    3.987999   -0.982062
H       2.098462    1.472562   -0.270764
