19

C      -0.069371    1.591071    0.052815
C       0.014830    0.058082    0.009354
C       0.777103   -0.480506   -1.191228
C       1.770990   -1.299883   -0.846982
C       1.867424   -1.431508    0.644491
C       2.341547   -2.711134    1.281652
N       2.201077   -0.114516    1.268791
C       0.788172   -0.557293    1.178297
H       0.933505    2.017689    0.132162
H      -0.547400    1.985518   -0.849837
H      -0.656480    1.925448    0.914584
H      -1.008773   -0.345506    0.006458
H       0.536441   -0.176787   -2.204864
H       2.452988   -1.796240   -1.528254
H       3.401347   -2.891421    1.066350
H       2.221981   -2.677908    2.369765
H       1.775883   -3.571141    0.907062
H       2.519537   -0.282302    2.223016
H       0.265957   -0.798403    2.099173
