18

C      -0.123324    1.476849   -0.042336
C       1.224228    0.769086    0.002401
C      -0.046806   -0.016846   -0.006793
C      -0.475701   -1.015868    1.042256
C      -1.718722   -1.736087    0.483693
C      -2.013092   -1.136132   -0.891277
C      -0.468535   -1.049837   -1.063440
C      -0.333166   -2.160408    0.064039
H      -0.451719    2.001754    0.849211
H      -0.410084    1.959311   -0.972026
H       1.833644    0.783160   -0.896190
H       1.796065    0.820317    0.923970
H      -0.253686   -1.014362    2.102113
H      -2.398281   -2.258159    1.145658
H      -2.454571   -1.881182   -1.559364
H      -2.575567   -0.197538   -0.954961
H      -0.006670   -1.062619   -2.049077
H       0.196534   -3.099488    0.125465
