15

C      -0.091707    1.353449   -0.225414
C       1.296977    0.896123    0.059255
N       0.190331   -0.050105    0.093710
C      -0.215691   -0.551987    1.337335
N       0.638183   -0.716640    2.345293
N      -0.109537   -1.281742    3.321261
C      -1.399751   -1.470660    2.959445
C      -1.516409   -1.009141    1.667836
H      -0.586495    1.951141    0.536451
H      -0.415309    1.541719   -1.244846
H       2.001373    0.752314   -0.754561
H       1.736409    1.179185    1.010862
H       0.331726   -1.522844    4.191094
H      -2.118604   -1.913519    3.631051
H      -2.395140   -1.004013    1.044907
