19

C      -0.118907    1.494213   -0.018033
C       0.068262   -0.003940    0.051885
C       1.375143   -0.722924   -0.200092
C       2.643876   -0.028680    0.331845
C       2.008152   -0.041040    1.768927
C       0.765525   -0.734774    1.177974
O       0.378873   -2.057556    1.434898
C       1.107939   -2.842830    0.487400
O       1.313560   -2.039388   -0.677996
H       0.746963    2.037716    0.369698
H      -0.275340    1.814683   -1.053240
H      -0.992146    1.800748    0.567046
H      -0.765444   -0.589809   -0.321962
H       3.519170   -0.676605    0.256686
H       2.888925    0.942238   -0.107910
H       2.545468   -0.695538    2.457782
H       1.841446    0.921873    2.259970
H       2.077096   -3.150350    0.913484
H       0.513701   -3.719540    0.216986
