14

C      -0.143018    1.349603    0.081526
O      -0.076879   -0.056040    0.068094
C       0.799151   -0.571848    1.043389
C       0.796536   -2.072139    0.944620
C       1.157333   -2.911041    2.092511
O      -0.203198   -2.770948    1.687396
H       0.840903    1.807528   -0.110478
H      -0.833452    1.651608   -0.709413
H      -0.516166    1.732348    1.044621
H       1.824247   -0.191353    0.882000
H       0.487455   -0.273201    2.057888
H       0.962329   -2.460773   -0.060471
H       1.603906   -3.889972    1.924874
H       1.412469   -2.444157    3.043627
