16

C       0.141372    1.559982   -0.018852
C       0.050795    0.042877    0.036348
O       0.715091   -0.489197   -1.115070
C       1.297098   -1.750578   -0.811461
C       1.526229   -1.746370    0.685490
N       2.210342   -0.518210    1.143095
C       0.737363   -0.617413    1.220833
H       1.186200    1.868938    0.061025
H      -0.265460    1.929155   -0.964080
H      -0.429608    2.009530    0.800193
H      -1.007361   -0.272739    0.039825
H       0.624608   -2.582651   -1.078466
H       2.216695   -1.841156   -1.399153
H       1.660986   -2.679136    1.222564
H       2.600632   -0.683266    2.068033
H       0.242235   -0.650119    2.185522
