20

C      -0.018894    1.540990    0.029796
C      -0.024550    0.000844   -0.005946
C       0.678147   -0.534578   -1.281411
C       0.862105   -2.056618   -1.221597
C       1.536578   -2.454886    0.091203
O       0.817279   -1.967310    1.215113
C       0.725608   -0.564583    1.229531
C      -1.417711   -0.472204    0.019604
N      -2.519313   -0.822598    0.027532
H       1.011842    1.908548    0.025109
H      -0.533674    1.950344   -0.843377
H      -0.517862    1.918515    0.926709
H       0.115233   -0.237530   -2.171558
H       1.658586   -0.044054   -1.340535
H      -0.112355   -2.552757   -1.289218
H       1.465917   -2.400926   -2.068230
H       1.576412   -3.541074    0.206736
H       2.571471   -2.070731    0.116722
H       1.729650   -0.105417    1.245991
H       0.206443   -0.291728    2.152261
