16

O       0.108440    0.057459    0.206158
C       0.015625    1.246781    0.136226
C      -1.177963    2.256796    0.004983
C      -0.107319    3.360816   -0.341129
C       1.006951    2.372640    0.026418
C       2.209107    2.511306    0.899533
N       2.349758    2.285933   -0.536446
C      -2.211474    1.958581   -0.957753
C      -3.050146    1.698902   -1.779014
H      -1.607433    2.421075    1.000797
H      -0.107855    3.617541   -1.401400
H      -0.169161    4.269553    0.258381
H       2.490381    3.504669    1.238588
H       2.424757    1.699807    1.590074
H       2.567683    1.308023   -0.724546
H      -3.795770    1.467142   -2.498591
