19

C      -0.080750    1.475193    0.038211
C       0.001597   -0.040681   -0.040507
C      -1.356933   -0.764013   -0.110532
O      -1.569492   -1.309598    1.190235
C      -0.310222   -1.764337    1.686639
C       0.719624   -0.752232    1.167445
C       1.813850   -1.219328    0.183530
O       1.171997   -1.997390   -0.834814
C       1.141721   -0.571449   -0.951169
H       0.907003    1.922896    0.195952
H      -0.492611    1.897508   -0.885791
H      -0.726976    1.782080    0.867006
H      -2.195806   -0.093624   -0.318863
H      -1.336065   -1.559815   -0.867297
H      -0.386142   -1.797141    2.776590
H      -0.086247   -2.773026    1.313057
H       1.085300   -0.056874    1.925561
H       2.863049   -1.418092    0.368506
H       1.539016   -0.136811   -1.862196
