14

O      -0.808138    1.359346   -0.122978
C       0.295211    0.951581   -0.369782
C       1.563535    1.794663   -0.182201
O       2.640968    1.253134   -0.284772
C       1.357271    3.254156    0.097885
C       2.602642    4.065287    0.530384
N       2.491491    4.806968   -0.732006
C       1.406180    4.139469   -1.217702
O       0.765915    4.199232   -2.226612
H       0.508367   -0.078074   -0.723528
H       0.436263    3.419974    0.657070
H       2.462086    4.680936    1.422797
H       3.509531    3.462392    0.613904
H       3.063687    5.524978   -1.150779
