23

C       0.027881    1.513010   -0.105266
C       0.271462    0.003486   -0.029504
C       0.510343   -0.494609    1.402300
C       0.712964   -1.997101    1.466993
C       1.980640   -2.731979    1.130157
C       3.217874   -1.972344    1.623036
C       2.663007   -2.096346    3.086072
O       2.441598   -0.931696    3.856458
C       1.403099   -2.771209    2.561454
H       0.882898    2.071273    0.292541
H      -0.134625    1.843063   -1.136356
H      -0.852471    1.801955    0.479783
H      -0.586385   -0.528877   -0.462328
H       1.135236   -0.263169   -0.652653
H       1.361471    0.028140    1.845791
H      -0.352482   -0.230953    2.029084
H      -0.159319   -2.547242    1.112358
H       2.004604   -3.536454    0.405254
H       4.154775   -2.516306    1.482315
H       3.341549   -0.953430    1.244178
H       3.267811   -2.818951    3.650715
H       3.294440   -0.611635    4.167873
H       0.900059   -3.584599    3.071603
