23

C      -0.152140    1.584968    0.243874
C      -0.020227    0.064534    0.110873
C      -1.372123   -0.627970   -0.103902
C      -1.328711   -2.159763   -0.150561
C      -0.477138   -2.697940   -1.303580
C      -0.979734   -2.860509    1.212686
C      -2.265041   -3.685590    1.067001
O      -2.696290   -4.653682    1.623222
C      -2.744771   -2.838686   -0.118944
H       0.822869    2.058392    0.394718
H      -0.599500    2.022938   -0.655321
H      -0.789233    1.855063    1.093405
H       0.654586   -0.166600   -0.721625
H       0.457798   -0.341062    1.012366
H      -2.054273   -0.323901    0.702712
H      -1.824309   -0.257705   -1.035146
H       0.574144   -2.413571   -1.197740
H      -0.516935   -3.792168   -1.344041
H      -0.835116   -2.317162   -2.266790
H      -0.047574   -3.429245    1.272715
H      -1.031383   -2.188647    2.077060
H      -3.551107   -2.156107    0.172404
H      -3.063006   -3.391483   -1.007419
