19

C      -0.104943    1.232905    0.198524
C      -0.452225   -0.151591   -0.271240
N      -0.292434   -0.518170   -1.469284
O      -0.942279   -0.873382    0.794193
C      -1.083319   -2.283453    0.695850
C      -2.470048   -2.728749    0.259920
O      -2.607568   -2.583857   -1.150002
C      -3.820977   -2.239081   -1.635250
N      -4.030021   -2.267943   -2.876810
H       0.666411    1.190624    0.973883
H       0.248353    1.825489   -0.643858
H      -0.983364    1.710937    0.643630
H      -0.632976   -1.459621   -1.658192
H      -0.323979   -2.709028    0.029372
H      -0.905453   -2.666532    1.706048
H      -2.606682   -3.785600    0.526206
H      -3.228059   -2.136160    0.787664
H      -4.532393   -1.942484   -0.852110
H      -4.975666   -1.951672   -3.080301
