15

O       0.247609    1.089096   -0.756201
C      -0.014778    0.035507    0.182622
C      -1.431749   -0.488530    0.101429
N      -2.002550   -0.890371    1.239582
C      -3.230366   -1.400061    1.157286
N      -3.955921   -1.544140    0.047041
C      -3.392020   -1.130171   -1.085267
C      -2.109110   -0.580008   -1.124701
O      -1.586519   -0.186474   -2.305797
H      -0.231640    1.873114   -0.464908
H       0.695184   -0.758109   -0.077154
H       0.193538    0.345707    1.211669
H      -3.686231   -1.728080    2.087175
H      -3.959319   -1.232786   -2.007435
H      -0.783759    0.332104   -2.111680
