21

O      -0.042872    1.355405    0.048829
C      -0.028120   -0.040677    0.201850
C      -0.840632   -0.670147    1.315687
C      -1.338379   -0.706342   -0.121759
O      -2.387069    0.153103   -0.459568
C      -1.379001   -2.012274   -0.884179
C      -2.583215   -2.870094   -0.550581
C      -3.904174   -2.625707   -1.230649
C      -3.107797   -3.865377   -1.555799
H       0.288012    1.757897    0.858046
H       0.902868   -0.517032   -0.102143
H      -0.460071   -1.574678    1.779156
H      -1.366394    0.005653    1.982566
H      -2.008343    1.043964   -0.463277
H      -1.377114   -1.783984   -1.957735
H      -0.456351   -2.570150   -0.676255
H      -2.635220   -3.174366    0.491929
H      -4.811632   -2.734324   -0.647169
H      -3.944381   -1.832465   -1.968191
H      -2.616220   -3.915346   -2.522442
H      -3.468922   -4.822376   -1.195112
