20

C      -0.208326    1.526468   -0.101108
C       0.087587    0.020648    0.021223
C       0.787350   -0.525472   -1.182209
C       2.030052   -0.993954   -1.328075
C       2.271613   -1.428822   -2.748905
N       1.007874   -1.147883   -3.387946
C       0.723939   -1.402356   -4.777166
C       0.091018   -0.616270   -2.508318
O      -1.053740   -0.294386   -2.773479
H       0.718114    2.102270   -0.193826
H      -0.824516    1.718155   -0.982562
H      -0.745360    1.885536    0.781908
H       0.686116   -0.177924    0.916912
H      -0.863520   -0.512378    0.140395
H       2.791528   -1.073909   -0.562478
H       3.098395   -0.871291   -3.216078
H       2.532402   -2.496690   -2.813952
H       0.826839   -2.467155   -5.022472
H      -0.307691   -1.093572   -4.958153
H       1.389534   -0.831378   -5.437046
