13

C      -0.027791   -1.183216   -0.006010
C      -0.008377    0.018584    0.022634
C       0.037338    1.441483    0.032989
C       0.369419    2.280009   -1.178053
C       1.285948    2.350002    0.016830
N       1.016708    3.391275    0.973075
C      -0.155683    3.168940    1.413116
O      -0.829726    2.072499    0.979538
H      -0.047208   -2.244917   -0.025080
H       0.729617    1.728453   -2.038273
H      -0.264525    3.133493   -1.394805
H       2.300772    1.977805   -0.044026
H      -0.695496    3.775911    2.129270
