18

C       0.012651    1.548650   -0.026667
C       0.036027    0.035453   -0.008794
C       0.467804   -0.698982   -1.277377
C       0.389514   -1.991905   -0.963574
C      -0.085384   -1.980967    0.478530
C       0.645146   -0.789910    1.200654
C      -0.627581   -0.532734    2.040634
C      -1.142971   -0.824493    0.612072
H       1.007897    1.950480   -0.248110
H      -0.669766    1.918037   -0.800539
H      -0.309992    1.973151    0.928234
H       0.764057   -0.227854   -2.205076
H       0.604111   -2.864570   -1.564256
H      -0.245024   -2.915006    1.018397
H       1.688463   -0.776212    1.530598
H      -0.863761   -1.281392    2.802138
H      -0.777391    0.474207    2.436595
H      -2.178059   -0.850994    0.257882
