14

O       0.038949   -0.006507    0.002235
C       0.011203    1.196978   -0.017853
C      -1.281630    2.075475   -0.000687
C      -0.753975    3.447899   -0.403687
O      -0.789287    4.623490    0.480703
C       0.661182    4.785157    0.360300
C       0.714281    3.370006   -0.146211
C       1.176848    2.140022    0.074697
H      -2.067854    1.658026   -0.631862
H      -1.640696    2.100363    1.034127
H      -1.062685    3.746598   -1.412853
H       0.917105    5.568447   -0.364417
H       1.147660    4.989463    1.318852
H       2.152994    1.820991    0.414871
