14

O      -0.004599    1.452072   -0.083360
C       0.008456    0.046013   -0.000326
C       0.140808   -0.570102    1.431166
O      -1.176701   -1.135450    1.356278
C      -1.433936   -0.522234    0.083032
C       0.875514   -0.549401   -1.004906
C       1.628559   -1.016976   -1.826943
C       2.473207   -1.551435   -2.756904
N       3.194332   -2.004078   -3.547106
H       0.903087    1.769845   -0.151503
H       0.914722   -1.332021    1.568696
H       0.226668    0.207936    2.199447
H      -2.172112    0.285755    0.139627
H      -1.719044   -1.248517   -0.683504
