17

C      -0.098475    1.505873   -0.232515
C      -0.033156    0.024700    0.020810
O       1.247605   -0.608272   -0.070651
C       0.607530   -0.588421    1.208740
C       1.279031    0.176889    2.278749
C       2.445448    0.873448    2.182915
O       2.772571    1.430050    3.379034
C       1.797081    1.080708    4.257412
C       0.858855    0.312533    3.648299
H       0.657437    2.040588    0.346285
H       0.061574    1.716427   -1.295052
H      -1.086683    1.891442    0.040674
H      -0.832346   -0.557658   -0.443337
H       0.215329   -1.557784    1.523951
H       3.134965    1.034282    1.372404
H       1.915108    1.452777    5.261649
H      -0.024727   -0.106896    4.104031
