20

C      -0.124134    1.535609    0.031698
C      -0.091715    0.003975   -0.054683
C       0.743065   -0.499537   -1.213224
C       0.199199   -0.319189   -2.665982
C       0.434464   -1.836083   -2.950568
C       1.041828   -1.996223   -1.540971
O       2.464326   -1.758929   -1.515037
C       2.279143   -0.377744   -1.130377
H       0.882137    1.946296    0.169897
H      -0.538670    1.975608   -0.881553
H      -0.738137    1.871848    0.872425
H       0.303333   -0.409258    0.882766
H      -1.116148   -0.379045   -0.151851
H      -0.854161   -0.027813   -2.697823
H       0.763619    0.378189   -3.290907
H      -0.493353   -2.397771   -3.091038
H       1.124910   -2.084246   -3.759385
H       0.753016   -2.854596   -0.926378
H       2.762103    0.319065   -1.827734
H       2.664866   -0.191837   -0.117824
