23

C       0.455516    1.351909   -0.012436
C       0.080636   -0.099116    0.020435
C      -0.185901   -0.874575   -1.034744
C      -0.542209   -2.296762   -0.668499
C      -0.223217   -2.341909    0.836263
C       1.258501   -2.616679    1.227843
C       1.323737   -1.251808    1.965173
C      -0.049727   -0.861035    1.329519
C      -1.088795   -0.267878    2.276899
H       1.411082    1.529239    0.497321
H       0.547071    1.718544   -1.038415
H      -0.289470    1.972263    0.501119
H      -0.164230   -0.527572   -2.063893
H      -1.597630   -2.514516   -0.885851
H       0.043079   -3.036273   -1.231579
H      -0.934223   -2.936076    1.415066
H       1.439206   -3.503175    1.840349
H       1.916420   -2.664669    0.355634
H       1.258016   -1.352904    3.052956
H       2.175643   -0.605733    1.734084
H      -0.787173    0.723989    2.633691
H      -2.062519   -0.163206    1.784890
H      -1.221562   -0.905772    3.157470
