20

O      -0.209373    1.472915   -0.324329
C      -0.014733    0.062321   -0.386142
C      -1.324219   -0.562012    0.061016
C      -2.528185   -0.517163   -0.918711
N      -2.731283   -2.000188   -0.820209
C      -1.981082   -2.752141   -1.876318
C      -0.819680   -3.049956   -0.886363
O       0.497458   -2.692967   -1.241465
C      -1.525670   -2.101669    0.105631
H       0.574328    1.896930   -0.685318
H       0.244985   -0.262332   -1.400747
H       0.802551   -0.261472    0.276763
H      -1.576017   -0.120670    1.029802
H      -3.398982    0.041015   -0.564017
H      -2.287679   -0.172160   -1.931121
H      -2.529100   -3.622227   -2.251978
H      -1.671227   -2.132776   -2.726664
H      -0.852034   -4.084271   -0.518058
H       0.851973   -3.374366   -1.821306
H      -1.693330   -2.515653    1.104042
