16

C      -0.024803    1.454720    0.068870
O      -0.030591    0.034439   -0.061517
C      -1.305493   -0.554054   -0.028411
C      -1.185318   -2.088907    0.161685
O      -1.820994   -1.990185    1.472711
C      -1.945816   -0.625358    1.373443
N      -2.389814    0.227782    2.174306
C      -2.192372   -0.109085   -1.097581
C      -2.920590    0.244858   -1.985317
H       1.025421    1.751661    0.059554
H      -0.546033    1.930622   -0.770563
H      -0.491918    1.768075    1.008577
H      -1.770631   -2.708446   -0.518173
H      -0.151960   -2.429176    0.242427
H      -2.696526   -0.199631    3.050505
H      -3.569281    0.564484   -2.763825
