13

N       0.065689    1.400749    0.171197
C      -0.035463    0.021361    0.046680
C      -1.199132   -0.695352    0.003374
N      -1.190500   -2.061729   -0.026938
C      -0.076826   -2.689174   -0.042282
F      -0.076715   -4.013838   -0.078120
C       1.256069   -2.074554   -0.013168
O       2.332019   -2.635847   -0.018327
N       1.143940   -0.678426    0.038401
H       0.761543    1.830848   -0.425639
H      -0.823306    1.872003    0.077132
H      -2.162902   -0.202657   -0.006955
H       2.024721   -0.189747    0.134637
