10

C      -0.018795    1.467505    0.016839
N       0.001806    0.018409   -0.055172
C       0.091924   -0.814466   -1.106839
N       0.071865   -2.057179   -0.677182
N      -0.033644   -1.970484    0.675660
N      -0.076393   -0.739599    1.061163
H       0.904995    1.884522   -0.391488
H      -0.874254    1.866150   -0.533852
H      -0.105730    1.737207    1.068869
H       0.167740   -0.491385   -2.132373
