18

C       0.049557    1.443859    0.004955
N      -0.001584   -0.000243   -0.033090
C       0.023760   -0.799332   -1.190998
C       0.029665   -2.104993   -0.908458
C      -0.002471   -2.281868    0.593518
C      -1.256429   -2.979367    1.117838
O       1.100981   -3.013668    1.113663
C       0.015706   -0.801431    1.094709
O       0.043549   -0.414883    2.240280
H       0.958532    1.826967   -0.473490
H      -0.821530    1.886535   -0.490617
H       0.049877    1.736614    1.056478
H       0.028965   -0.308405   -2.155241
H       0.036977   -2.918319   -1.618263
H      -1.259407   -4.022847    0.791705
H      -1.251970   -2.944115    2.210454
H      -2.161137   -2.489003    0.749267
H       1.909265   -2.623490    0.763291
