12

C       0.041019    1.407477    0.104573
N      -0.178371   -0.008411   -0.126525
C       0.532411   -0.621407   -1.132663
C       1.201654   -0.135017   -2.216529
O       1.670999   -1.187732   -2.915142
N       1.285727   -2.339469   -2.227120
N       0.628646   -1.995190   -1.201704
H       1.095044    1.660652    0.299535
H      -0.290440    1.981099   -0.768164
H      -0.560340    1.727236    0.957550
H      -0.241422   -0.579002    0.703889
H       1.412607    0.845920   -2.602251
