16

O       0.000658    0.046607    0.106654
C      -0.015333    1.232960   -0.017815
C      -1.171713    2.254712   -0.000669
C      -0.688502    3.066965    1.221927
O       0.765673    3.038254    1.135665
C       1.108833    2.288911   -0.044339
C       0.696144    3.123742   -1.250494
N      -0.054665    2.335062   -2.252066
C      -0.795172    3.092890   -1.223644
H      -2.178901    1.848373    0.057990
H      -1.026772    4.109477    1.205043
H      -0.998205    2.607549    2.167148
H       2.135022    1.937770    0.033920
H       1.256055    4.004935   -1.540499
H      -0.077129    2.834954   -3.136588
H      -1.391301    3.954494   -1.503540
