17

O      -0.175410    0.016527   -0.100628
C      -0.150414    1.204868    0.042950
C      -1.172784    2.297751   -0.053738
C      -0.956309    3.267776    1.097010
C      -0.010707    3.334516   -0.049388
C       1.037744    2.229839    0.101788
C       2.188815    2.188529    1.123609
C       3.067893    1.886858   -0.105487
O       1.944142    2.071479   -0.999214
H      -2.097564    2.279566   -0.615927
H      -1.699503    4.056105    1.153555
H      -0.625191    2.904385    2.066236
H       0.101615    4.193185   -0.697071
H       2.388238    3.145445    1.609760
H       2.125616    1.400102    1.874905
H       3.874747    2.595177   -0.322005
H       3.457727    0.864475   -0.156101
