18

C      -0.110120    1.601836    0.007292
C       0.030698    0.089411    0.021824
C       1.192691   -0.635716   -0.776607
C       2.437405   -0.059545   -0.084093
C       2.121226   -0.076855    1.216644
C       0.701336   -0.666254    1.242251
C       0.912792   -1.783202    0.212533
N       0.772590   -3.033073    0.246501
O       1.025415   -3.614473   -1.020939
H       0.832615    2.099740    0.244393
H      -0.441391    1.944468   -0.978768
H      -0.861302    1.922698    0.736869
H      -0.928353   -0.384504   -0.217353
H       1.181188   -0.765478   -1.855330
H       3.354068    0.238583   -0.571726
H       2.709444    0.204135    2.077981
H       0.195929   -0.822821    2.192527
H       0.886172   -4.549528   -0.837557
