19

C      -0.659096    1.101757    0.040969
C       0.294339   -0.082212    0.007346
C       1.182617   -0.171310   -1.263713
C       2.571990   -0.482790   -0.738690
C       2.480822   -0.330285    0.743728
O       1.195461    0.022389    1.131937
C       2.746026   -1.720704    0.155866
C       1.799401   -2.791948    0.200989
C       1.024898   -3.712970    0.235373
H      -0.110698    2.042259   -0.072903
H      -1.392282    1.024299   -0.768540
H      -1.200000    1.130990    0.990903
H      -0.269110   -1.013956    0.119961
H       0.802009   -0.926790   -1.956716
H       1.206283    0.788669   -1.790651
H       3.434132   -0.153943   -1.306643
H       3.244894    0.124823    1.363965
H       3.781742   -2.037671    0.253830
H       0.338678   -4.521803    0.280502
