18

C      -0.216984    1.517104   -0.099614
C       0.142549    0.035156    0.060946
C       0.781942   -0.546161   -1.169817
C       0.007415   -1.061149   -2.360287
C       0.876800   -2.001025   -1.534420
N       2.240895   -2.147739   -1.933009
C       2.890197   -0.928456   -1.990365
O       3.984896   -0.689394   -2.413446
O       2.050681    0.026100   -1.464982
H       0.674754    2.108674   -0.323092
H      -0.931458    1.662934   -0.916144
H      -0.665683    1.908452    0.817709
H       0.829864   -0.095683    0.905133
H      -0.755527   -0.550791    0.288615
H      -1.066701   -1.149480   -2.236286
H       0.341352   -0.796237   -3.357717
H       0.445241   -2.792160   -0.931796
H       2.566329   -2.881196   -2.541375
