21

C       0.039914    1.532094    0.075310
C      -0.007140    0.037734   -0.028519
C       1.055053   -0.841318   -0.664809
C       0.429204   -1.923684   -1.523156
C      -0.845124   -2.132637   -0.727926
C      -0.596900   -1.900471    0.755576
C       0.680858   -1.032122    0.798020
C      -1.300764   -0.841389   -0.071479
C      -2.711113   -0.337456   -0.016042
H       1.065677    1.876901    0.243988
H      -0.323149    2.014415   -0.840841
H      -0.571364    1.901108    0.907264
H       2.017533   -0.404154   -0.906860
H       0.231683   -1.583015   -2.546504
H       1.045942   -2.828768   -1.573197
H      -1.593633   -2.858221   -1.026812
H      -0.985868   -2.527923    1.546555
H       1.370676   -0.926441    1.624834
H      -2.867311    0.340822    0.831024
H      -2.984349    0.205913   -0.929210
H      -3.415691   -1.168560    0.095179
