20

O      -2.877480    0.625960   -2.152478
C      -2.477645   -0.700796   -1.850383
C      -1.931638   -0.693601   -0.423870
C      -1.588368   -2.068869    0.123555
C      -0.467098   -2.820007   -0.596892
C       0.811637   -2.105591   -0.559727
N       1.813301   -1.530272   -0.527171
C      -1.695132   -2.284172    1.612724
C      -2.703761   -2.919549    0.686048
H      -3.155846    0.656968   -3.072264
H      -3.325577   -1.402009   -1.920482
H      -1.706061   -1.048642   -2.555584
H      -1.050921   -0.041687   -0.386435
H      -2.689671   -0.231842    0.218007
H      -0.321615   -3.804379   -0.138761
H      -0.726840   -3.002208   -1.646325
H      -0.965204   -2.927791    2.092244
H      -2.013651   -1.446084    2.222435
H      -3.708158   -2.510607    0.664558
H      -2.662702   -3.994329    0.542831
