11

O       0.101152    1.363836    0.134723
C       0.068128    0.011921    0.039892
C       0.081141   -0.694314   -1.161451
N       0.047243   -2.025634   -1.202081
C      -0.000068   -2.652225   -0.027266
N      -0.016731   -2.079574    1.178862
C       0.017391   -0.750477    1.208731
H       0.134418    1.749009   -0.748363
H       0.120059   -0.167267   -2.115880
H      -0.027941   -3.737799   -0.052609
H       0.004849   -0.258010    2.178233
