16

N      -0.128226    1.269895    0.087711
C       0.008863    0.010251    0.013491
N       1.151001   -0.781556   -0.100798
C       0.768762   -2.118924   -0.061355
N      -0.483562   -2.340891    0.018602
C      -1.128025   -1.016750    0.047810
C      -2.035944   -0.820781    1.279931
C      -3.236666   -1.642927    1.248871
C      -4.234779   -2.310608    1.212033
H       0.765244    1.762565    0.049295
H       2.097725   -0.440715   -0.087419
H       1.529444   -2.892120   -0.104248
H      -1.743046   -0.906572   -0.852742
H      -1.454032   -1.037209    2.183849
H      -2.298632    0.242716    1.319599
H      -5.113350   -2.905843    1.185007
