16

C       0.291988    1.018718    0.882589
N      -0.427390    0.205651   -0.097390
C       0.336071   -0.336935   -1.201851
C       1.208247   -1.593829   -0.939456
C       2.409665   -1.325712   -0.157885
N       3.365930   -1.104370    0.452925
C      -0.636962   -0.619140   -2.351757
O      -0.584767   -1.576884   -3.077595
H       1.069308    0.484717    1.445610
H       0.767286    1.860551    0.368489
H      -0.429903    1.430899    1.593483
H      -0.958992   -0.524600    0.363574
H       0.987964    0.470319   -1.569093
H       0.607259   -2.354272   -0.427669
H       1.492492   -2.028592   -1.903305
H      -1.421480    0.160654   -2.446055
