16

C       0.079444    1.471097    0.280242
N       1.321828    2.201455   -0.018266
C       2.407474    1.572359    0.121859
N       2.476858    0.168904    0.498888
C       2.162783   -0.017369    1.874585
N       1.157849   -0.749082    2.156790
C       0.572331   -1.123510    0.889955
C       0.100654   -0.016477   -0.064673
C       1.467986   -0.622414   -0.213372
H      -0.124397    1.618356    1.348914
H      -0.728095    1.966334   -0.263689
H       3.361881    2.070062   -0.040069
H       2.776462    0.484606    2.615230
H       0.058700   -2.075014    0.853361
H      -0.650964   -0.348256   -0.773051
H       1.807678   -1.164878   -1.087161
