16

C      -0.018986    1.464959    0.034105
C      -0.000168   -0.027679   -0.017024
C      -0.038291   -0.804686   -1.120929
C       0.000254   -2.200078   -0.706937
N      -0.008711   -3.374852   -1.281129
O       0.053120   -4.274898   -0.198980
C       0.095022   -3.586122    0.967339
C       0.064743   -2.260970    0.717084
C       0.069051   -0.865771    1.264901
H       0.879660    1.856196    0.527724
H      -0.073608    1.899507   -0.967036
H      -0.876300    1.831289    0.612918
H      -0.089131   -0.453952   -2.142822
H       0.143547   -4.196569    1.855642
H       0.970547   -0.626659    1.843789
H      -0.783992   -0.651925    1.921846
