15

O      -0.153162    1.308495    0.006208
N       0.001619   -0.085986    0.002107
C      -1.126979   -0.668644    0.009054
C      -2.502012   -0.027917    0.020327
C      -3.419676   -1.217194    0.024905
C      -2.749045   -2.378717    0.017499
C      -1.243378   -2.182557    0.006778
C      -3.341019   -3.670795    0.019292
N      -3.794047   -4.736900    0.020457
H       0.759323    1.617447    0.000325
H      -2.636558    0.620699    0.896224
H      -2.649441    0.623914   -0.851110
H      -4.499433   -1.134037    0.033103
H      -0.776774   -2.633345   -0.876590
H      -0.763677   -2.637024    0.881197
