19

C      -0.055219    1.523443    0.053441
C       1.505598    1.579050   -0.098141
C       1.423697    0.171325   -0.695625
C       2.224030   -1.123907   -0.827950
C       1.232294   -1.287074   -2.011649
C      -0.174444   -1.759373   -1.580537
O      -0.841667   -0.771557   -0.791918
C       0.059298   -0.021896   -0.013265
O       1.165789    0.159336   -2.131658
H      -0.499481    1.961461    0.948300
H      -0.552504    1.908178   -0.837881
H       1.930667    2.346972   -0.746372
H       2.020139    1.590683    0.866244
H       3.248920   -0.988592   -1.179912
H       2.183718   -1.833873    0.002483
H       1.572043   -1.781533   -2.924839
H      -0.803796   -1.913916   -2.462349
H      -0.103396   -2.716951   -1.039295
H       0.169271   -0.452340    0.994888
