20

C      -0.041837    1.558042   -0.007728
C       0.040618    0.030524   -0.022705
C       0.681323   -0.526649   -1.303419
C       0.782539   -2.057404   -1.237518
C       1.483491   -2.486538    0.049718
O       0.839368   -1.944931    1.205809
C       0.782222   -0.533189    1.214067
C       2.140836    0.050189    1.351176
N       3.201893    0.497945    1.450053
H       0.951609    2.011980   -0.079414
H      -0.635785    1.913811   -0.855049
H      -0.514606    1.926257    0.909213
H      -0.973969   -0.381129    0.058524
H       0.095738   -0.213818   -2.174537
H       1.683016   -0.092617   -1.424972
H      -0.221559   -2.498152   -1.261694
H       1.331692   -2.450801   -2.100086
H       1.452640   -3.570050    0.186996
H       2.538907   -2.174806    0.034431
H       0.228084   -0.268106    2.121216
