15

O      -0.249341    0.367963   -0.578543
C       0.114246    1.161698    0.255927
C       1.333638    1.988480    0.129447
N       1.642501    3.102471    1.187913
C       2.613265    3.432372    0.127939
N       3.815542    3.064421    0.323285
C       3.991872    1.884904   -0.567510
C       2.530752    1.500289   -0.869451
C       1.815907    2.772420   -1.047594
H      -0.453832    1.327364    1.196180
H       0.814778    3.705445    1.107988
H       4.547088    2.057810   -1.501538
H       4.543206    1.146195    0.021581
H       2.258684    0.611681   -1.430817
H       1.263072    3.195327   -1.876281
