18

O       0.270197    1.309569    0.225788
C       0.143855   -0.025384    0.001044
C       0.097864   -0.786259   -1.147270
C      -0.005926   -2.141489   -0.699186
C      -0.020032   -2.143360    0.664505
C      -0.232900   -3.480497    1.292846
C      -0.008668   -4.406546    0.051094
C      -0.196794   -3.532786   -1.233548
N       0.058358   -0.836804    1.104832
H       0.340422    1.750391   -0.625993
H       0.143698   -0.409492   -2.157858
H       0.462211   -3.723261    2.106196
H      -1.246890   -3.595079    1.704446
H       1.017883   -4.784058    0.076668
H      -0.671493   -5.275847    0.063835
H      -1.198397   -3.669104   -1.665257
H       0.516487   -3.816895   -2.015911
H       0.117049   -0.503246    2.051063
