15

C      -0.168677    1.438921    0.045464
C      -0.007462   -0.038341   -0.058203
N      -0.276326   -0.788149   -1.117323
C       0.047149   -2.030434   -0.690496
O      -0.088039   -3.074121   -1.533682
C      -0.068111   -4.337369   -1.010371
N      -0.021999   -5.310188   -1.806365
N       0.502069   -2.127268    0.547754
N       0.448012   -0.822416    0.939007
H       0.074461    1.796845    1.049179
H       0.484329    1.944779   -0.671664
H      -1.197849    1.724888   -0.187706
H      -0.109404   -4.351238    0.080568
H      -0.043994   -6.183289   -1.282588
H       0.747362   -0.568892    1.866072
