16

O      -0.288722    1.552456    0.117645
C       0.044055    0.187365    0.248243
C      -1.131865   -0.708004   -0.143418
N      -1.544227   -0.339180   -1.492578
C      -2.209689   -1.143309   -2.180522
O      -2.640090   -2.402983   -1.830094
C      -3.324641   -2.905511   -2.922486
C      -3.317997   -1.994384   -3.887758
O      -2.630245   -0.879241   -3.454990
H      -0.704673    1.626936   -0.751729
H       0.917362   -0.075642   -0.371693
H       0.313854    0.015127    1.295884
H      -0.851316   -1.767560   -0.063377
H      -1.962174   -0.529854    0.553658
H      -3.737285   -3.894452   -2.835082
H      -3.723932   -1.964645   -4.882822
