17

O       0.096610    1.296817   -0.452261
C       0.092467    0.022854    0.173212
C      -1.297436   -0.512535    0.317738
C      -2.411300   -0.141793    1.308411
C      -2.990908   -1.587610    1.136793
C      -1.846340   -1.887230    0.148735
O      -1.951656   -0.903406   -0.900958
C      -1.222558   -3.134215   -0.133297
C      -0.717888   -4.207463   -0.333943
H      -0.309313    1.182491   -1.319113
H       0.697583   -0.709223   -0.381044
H       0.546920    0.163965    1.159030
H      -2.041414    0.044945    2.319025
H      -3.046862    0.687083    0.991890
H      -2.927516   -2.181933    2.050019
H      -3.989613   -1.675820    0.705159
H      -0.268234   -5.151166   -0.521634
