21

C      -0.462259    1.283803   -0.094905
C      -0.002151   -0.142297    0.080169
C      -0.559695   -0.991886    1.195794
C       0.901173   -0.600561    1.205074
C       1.903138   -1.606238    0.658793
C       1.279672   -2.102753   -0.663439
C       0.438749   -0.901776   -1.184487
C      -0.656859   -1.287739   -2.065753
C      -1.569312   -1.607398   -2.781241
H       0.307261    1.894012   -0.583575
H      -1.365840    1.330937   -0.713118
H      -0.692733    1.746141    0.869876
H      -1.207506   -0.490714    1.907370
H      -0.839268   -2.022686    1.003846
H       1.235492    0.104567    1.959496
H       2.857173   -1.100113    0.467120
H       2.110611   -2.432483    1.347622
H       2.024793   -2.422597   -1.395377
H       0.622345   -2.957994   -0.486897
H       1.105183   -0.227750   -1.742386
H      -2.373203   -1.887497   -3.415624
