18

C      -0.401525   -1.219658    0.243833
C      -0.229116   -0.031873    0.160414
C      -0.043219    1.385595    0.010602
C       0.539587    2.194172    1.131196
N       1.304188    1.988085   -0.089385
C       2.451999    1.104320   -0.006701
C       3.016336    0.639361   -1.364306
O       4.294632    1.251260   -1.091425
C       3.806818    1.829987    0.135586
H      -0.557494   -2.266863    0.328066
H      -0.769198    1.867862   -0.639521
H       0.180475    3.204381    1.306048
H       0.834502    1.644181    2.022832
H       2.311402    0.285605    0.710030
H       3.099563   -0.442867   -1.512872
H       2.513577    1.093680   -2.226737
H       3.727258    2.922617    0.078145
H       4.424481    1.549750    0.996927
