14

C      -0.067865    1.504604   -0.101492
C      -0.004667    0.019337   -0.011574
N      -0.067881   -0.786668   -1.052681
N       0.024985   -2.027174   -0.530235
C      -0.008281   -3.150876   -1.369264
O       0.067915   -4.282768   -0.988297
N       0.147275   -2.074544    0.815328
C       0.129600   -0.804748    1.149928
O       0.225036   -0.355433    2.406675
H       0.836633    1.961397    0.313649
H      -0.171533    1.812705   -1.143083
H      -0.916710    1.896194    0.468817
H      -0.114207   -2.816233   -2.413646
H       0.305810   -1.118989    2.993557
