20

C       0.036789    1.576304   -0.003666
C       0.063082    0.049746    0.004738
C       0.622636   -0.531770   -1.297887
C       0.894000   -2.014903   -1.190464
C       0.903240   -2.805985   -2.465202
C       1.157115   -2.553203    0.006771
C       1.232728   -1.754740    1.252790
O       1.620980   -2.219479    2.311867
N       0.873868   -0.430493    1.119915
H       1.047881    1.980391   -0.115782
H      -0.580034    1.944617   -0.828837
H      -0.386583    1.967045    0.927924
H      -0.973424   -0.314341    0.111433
H      -0.080997   -0.331075   -2.113978
H       1.558798   -0.016902   -1.562676
H       1.621833   -2.382900   -3.179177
H       1.165579   -3.852272   -2.292353
H      -0.077646   -2.769589   -2.955974
H       1.388155   -3.605786    0.128767
H       0.788381    0.052186    2.003920
