18

O       0.082346    1.017846   -0.889469
C       0.059271   -0.275485   -0.320737
C      -1.337246   -0.580242    0.218008
N      -2.346452   -0.418038   -0.878123
C      -2.663103   -1.882754   -0.869777
C      -2.208363   -2.589479   -2.056969
C      -1.762565   -3.214081   -2.984360
C      -1.728746   -2.078713    0.385001
O      -0.749850   -3.070987    0.353501
H      -0.662446    1.025769   -1.507029
H       0.352549   -1.038999   -1.057897
H       0.796519   -0.296396    0.487496
H      -1.536376    0.048906    1.091575
H      -3.149548    0.130424   -0.593232
H      -3.717015   -2.112949   -0.682357
H      -1.404853   -3.748206   -3.830380
H      -2.319423   -2.245028    1.289536
H      -0.497018   -3.216210   -0.567892
