22

C      -0.018022    1.503130   -0.179104
C       0.011540    0.015643    0.125203
C      -1.211685   -0.698882   -0.425929
N       1.234029   -0.813270   -0.065483
C       2.432181    0.014601    0.313415
C       1.917062    0.231765    1.754716
C       0.662731   -0.547104    1.340080
C       0.153789   -1.688283    2.181146
O       1.146232   -2.694911    2.323423
H       0.771742    2.073371    0.310411
H       0.060756    1.669719   -1.259561
H      -0.975435    1.922292    0.147782
H      -1.350816   -0.429431   -1.478438
H      -1.100193   -1.782878   -0.377783
H      -2.118457   -0.410501    0.117258
H       3.330849   -0.602769    0.256112
H       2.579348    0.899183   -0.313252
H       2.498454   -0.325157    2.490904
H       1.775740    1.255447    2.112629
H      -0.065069   -1.327757    3.193440
H      -0.777147   -2.103208    1.773004
H       1.441637   -2.893993    1.425930
