20

C       0.288904    0.786389   -0.599645
C      -0.340730    0.125232    0.630715
N      -1.482924   -0.754865    0.447852
C      -1.961314   -0.963520   -0.691667
O      -3.048435   -1.764877   -0.831869
C      -3.460087   -2.074181   -2.159888
C      -2.807527   -3.345220   -2.690481
C      -4.983801   -2.165953   -2.121415
O      -5.636492   -2.774765   -2.926040
H       1.132145    1.409742   -0.287799
H       0.670444    0.046082   -1.311243
H      -0.422120    1.431805   -1.126715
H       0.425061   -0.456365    1.160615
H      -0.650068    0.903115    1.341271
H      -1.601607   -0.546641   -1.641704
H      -3.225918   -1.225056   -2.825114
H      -3.261731   -3.614769   -3.646708
H      -1.732895   -3.201309   -2.829172
H      -2.962239   -4.166972   -1.986416
H      -5.440517   -1.599344   -1.281666
