19

C       0.035880    1.350360    0.330462
O      -0.031303   -0.058706    0.272894
C      -1.294628   -0.549421   -0.140371
C      -1.191563   -2.073076   -0.087825
O      -0.651152   -2.495524    1.155429
C      -2.564909   -2.750048   -0.211129
O      -2.446489   -4.149681   -0.071028
C      -0.291601   -2.569426   -1.235549
O      -0.419832   -2.217410   -2.377898
H       1.039645    1.614221    0.670432
H      -0.137736    1.800218   -0.657436
H      -0.702404    1.760418    1.035817
H      -2.084660   -0.192513    0.538743
H      -1.528659   -0.229392   -1.164827
H       0.008549   -1.834424    1.403285
H      -3.237710   -2.319991    0.547056
H      -2.983533   -2.557105   -1.203061
H      -1.985041   -4.298098    0.763227
H       0.487140   -3.293255   -0.912400
