18

C       0.035697    1.653540    0.007157
C      -0.003848    0.127402   -0.032944
C      -1.404210   -0.435788    0.014927
N      -1.536335   -1.843765   -0.017471
C      -0.577556   -2.831180   -0.087997
O       0.618926   -2.683952   -0.138245
N      -2.413567    0.335816    0.081505
C      -3.756340   -0.212383    0.127225
H       1.073641    1.997140   -0.030347
H      -0.506298    2.085909   -0.837026
H      -0.426877    2.037711    0.919183
H       0.493140   -0.255858   -0.930904
H       0.571171   -0.303228    0.794170
H      -2.485033   -2.186128    0.015992
H      -1.058477   -3.830124   -0.093529
H      -4.004703   -0.802380   -0.769538
H      -3.923851   -0.852903    1.007956
H      -4.476614    0.607068    0.183314
