15

C       0.123826    1.522208    0.020070
C      -0.024210    0.039042   -0.006271
C      -1.174507   -0.670510    0.065305
N      -2.440369   -0.126295    0.208744
C      -1.119080   -2.147265    0.049297
O      -2.137817   -2.811274    0.113150
N       0.151613   -2.730839   -0.050300
C       1.167259   -1.961855   -0.126703
O       1.178756   -0.622376   -0.116590
H       1.037604    1.801360    0.552191
H       0.185022    1.951041   -0.988258
H      -0.729040    1.974002    0.533305
H      -2.638367    0.709847   -0.319268
H      -3.143148   -0.848775    0.096533
H       2.177142   -2.352738   -0.214227
