20

C      -0.061302    1.552330    0.276403
C      -0.027839    0.034070    0.098178
O       0.870242   -0.589210    1.016218
C      -1.393239   -0.609942    0.173543
C      -1.795116   -1.743021   -0.683457
N      -2.409851   -0.414392   -0.920986
C      -3.432099   -0.110930    0.159032
C      -3.647238   -1.127183    1.243762
C      -2.423773   -0.251010    1.274766
H       0.942554    1.964674    0.145774
H      -0.732189    2.009078   -0.456947
H      -0.411834    1.830175    1.277413
H       0.382554   -0.192382   -0.892266
H       0.578004   -0.367423    1.907170
H      -1.108602   -2.013069   -1.480946
H      -2.388285   -2.574214   -0.322200
H      -4.143130    0.675547   -0.058704
H      -4.411677   -0.820672    1.952244
H      -3.610914   -2.200468    1.097820
H      -2.211380    0.423256    2.093676
