21

C      -0.065002    1.537602    0.119833
C      -0.026696    0.032192    0.099103
C       0.929427   -0.730929   -0.924120
C       1.987214   -0.831263    0.206473
C       0.755804   -0.888475    1.119196
C      -0.264366   -1.977434    0.557675
C       0.302483   -2.143865   -0.866597
C      -1.286892   -0.834081    0.317447
O      -2.073183   -0.436887    1.422282
H       0.934108    1.974784    0.222060
H      -0.503430    1.929519   -0.805821
H      -0.681366    1.895457    0.951220
H       1.171116   -0.309884   -1.900483
H       2.685986   -1.673996    0.179662
H       2.542640    0.099087    0.353716
H       0.802284   -0.720139    2.195915
H      -0.539250   -2.866781    1.124430
H      -0.482792   -2.320479   -1.607739
H       1.053367   -2.933215   -0.965230
H      -1.993930   -0.963819   -0.508895
H      -1.492073   -0.305377    2.179505
