16

C      -0.110292    1.565095    0.008045
C       1.429644    1.251407    0.000994
C       1.257153    0.028618    0.953458
C       1.869472   -1.022692    0.000822
N       1.109262   -2.280422    0.005487
C      -0.154539   -2.181445    0.011370
O      -0.887123   -1.015990    0.013892
C       0.016645    0.048659    0.008711
C       1.248132    0.027018   -0.947731
H      -0.510284    2.033217    0.912246
H      -0.518855    2.031704   -0.893101
H       2.250863    1.963547   -0.003502
H       1.220592    0.032077    2.042347
H       2.942080   -1.218405   -0.004100
H      -0.808778   -3.048438    0.015262
H       1.201240    0.028647   -2.036228
