16

C       0.093257    1.500018   -0.197601
C      -0.021042    0.018707   -0.061882
C      -1.103585   -0.758695    0.074091
C      -2.558106   -0.431655    0.137818
C      -0.653367   -2.171227    0.168096
O      -1.310811   -3.166577    0.296072
O       0.717106   -2.196124    0.083465
C       1.198815   -0.865350   -0.062453
H       0.701158    1.922615    0.611893
H       0.590244    1.770905   -1.137302
H      -0.883509    1.987632   -0.177963
H      -2.744083    0.641680    0.057257
H      -3.100831   -0.940931   -0.665715
H      -2.990709   -0.791029    1.077644
H       1.770536   -0.789248   -0.997065
H       1.882187   -0.636322    0.766224
