18

C       1.243820    0.628877    0.243399
C      -0.016075   -0.182785    0.158591
N      -0.993039   -0.106591    0.978588
O      -0.741234    0.820260    2.000045
C      -0.195920   -1.183817   -0.963679
O       0.022744   -0.538604   -2.224225
C       0.964563   -1.270960   -3.005781
C       1.458592   -2.362604   -2.098913
C       0.801521   -2.318278   -0.946523
H       1.963728    0.314176   -0.512649
H       1.019769    1.690437    0.096625
H       1.691295    0.536488    1.237639
H      -1.550163    0.773175    2.520569
H      -1.228001   -1.558778   -0.901551
H       0.477359   -1.674365   -3.908506
H       1.764863   -0.596272   -3.344135
H       2.220558   -3.075330   -2.388161
H       0.912481   -2.980988   -0.098252
