19

C       0.013384    1.451356    0.083877
C       1.565762    1.538798   -0.034193
C       2.039539    1.361480   -1.512267
C       1.675728   -0.149010   -1.411434
C       2.757878   -1.194230   -1.070349
O       2.546095   -0.993584    0.371818
C       1.544788   -0.026559    0.097870
C      -0.018484   -0.102825   -0.038450
C       0.179396   -0.566019   -1.517267
H      -0.298810    1.750029    1.087866
H      -0.567889    2.014227   -0.653674
H       2.067179    2.259550    0.612390
H       1.523744    1.955934   -2.272694
H       3.117349    1.511455   -1.628818
H       2.542080   -2.229389   -1.361059
H       3.785458   -0.940984   -1.357719
H      -0.722621   -0.631290    0.604893
H      -0.431053   -0.069646   -2.277948
H       0.068145   -1.648163   -1.637010
