19

C      -0.134331    1.473742    0.070356
C      -0.009737   -0.043391    0.085294
C       1.263040   -0.462534   -0.741224
O       2.015902   -0.492865    0.529182
C       0.763557   -0.717935    1.194642
C      -0.105401   -0.384176    2.430599
C      -1.082554   -1.293257    1.550524
C       0.145839   -2.150561    1.228624
O      -1.307991   -0.634971    0.264213
H       0.841764    1.943922    0.221272
H      -0.523725    1.794507   -0.902258
H      -0.827599    1.829266    0.834711
H       1.238713   -1.448072   -1.213796
H       1.673124    0.285553   -1.423165
H       0.147039   -0.901561    3.357551
H      -0.364163    0.656850    2.620699
H      -2.020889   -1.673884    1.945639
H       0.095001   -2.739027    0.312414
H       0.526318   -2.739880    2.064594
