14

N      -0.105537    1.307122    0.009290
C      -0.044308    0.047020    0.002175
O      -1.177552   -0.682039    0.008999
C      -1.016125   -2.098918   -0.000002
C      -2.420691   -2.706740    0.010423
C      -2.378295   -4.162558    0.002255
C      -2.311205   -5.362149   -0.004815
H       0.833657    1.699494    0.002557
H       0.870346   -0.562468   -0.009540
H      -0.470660   -2.418906   -0.896527
H      -0.453415   -2.428243    0.882372
H      -2.954554   -2.343159    0.896096
H      -2.971636   -2.333798   -0.860778
H      -2.269839   -6.423216   -0.010866
