15

O       0.065762    1.352385    0.010708
C       0.063900   -0.049729    0.001723
C       1.024463   -0.569140   -0.960847
C       1.851398   -0.902385   -1.768341
C      -0.038588   -0.683426    1.464474
O      -1.418868   -0.218332    1.477143
C      -1.412542   -0.633503    0.080821
C      -1.136275   -2.131533    0.184497
C      -0.193673   -2.164961    1.134458
H       0.824844    1.650863   -0.498914
H       2.572951   -1.222809   -2.479258
H       0.574707   -0.335750    2.293643
H      -2.224195   -0.234721   -0.524596
H      -1.566756   -2.919683   -0.414511
H       0.374211   -2.989253    1.538881
