21

C      -0.291515    1.547523   -0.126562
C      -0.352219    0.052153    0.087037
C      -1.722737   -0.586080   -0.055377
O      -2.722922    0.036345    0.736412
C      -2.851316   -0.481252    2.029808
C      -2.014021    0.050853    3.160433
C      -3.480207    0.419519    3.043151
C       0.833909   -0.781085   -0.160541
O       0.445932   -0.448366    1.173304
H       0.715496    1.921373    0.071845
H      -0.565493    1.802347   -1.156265
H      -0.996174    2.054068    0.537955
H      -2.055663   -0.481164   -1.095532
H      -1.650392   -1.657324    0.177004
H      -3.112403   -1.540031    2.048315
H      -1.705695   -0.639947    3.937419
H      -1.282708    0.812845    2.922650
H      -3.711680    1.425254    2.711087
H      -4.192086   -0.002498    3.743541
H       0.720308   -1.830417   -0.432724
H       1.750792   -0.311414   -0.515153
