14

N       0.071498    1.314748    0.266212
C      -0.024963   -0.017375   -0.012429
N      -1.193461   -0.577728    0.020935
C      -1.437918   -1.902629   -0.223408
C      -0.611552   -2.970586   -0.109357
C       0.794158   -2.868762    0.301391
O       1.340475   -3.622356    1.074572
N       1.548123   -1.882211   -0.377351
C       1.219995   -0.658859   -0.490084
H       0.965674    1.712543    0.498741
H      -0.746648    1.755651    0.657042
H      -2.484937   -2.097113   -0.449323
H      -1.018935   -3.972485   -0.197591
H       1.903844   -0.001278   -1.036996
