20

C      -0.152035    1.612605    0.161516
C       0.076350    0.094018    0.040147
C       0.698872   -0.511821    1.277602
N       0.060958   -0.768848    2.355889
O      -1.296315   -0.417813    2.263978
C       2.159927   -0.850638    1.257141
C       3.203101    0.303520    1.308670
O       3.911822   -0.339887    2.380199
C       2.869872   -1.329991    2.539461
H       0.789058    2.149719    0.314173
H      -0.614534    2.001091   -0.750789
H      -0.812305    1.831606    1.003061
H      -0.886083   -0.396637   -0.136098
H       0.717632   -0.117083   -0.822250
H      -1.633458   -0.691889    3.123225
H       2.357691   -1.510300    0.405485
H       3.829758    0.444747    0.420564
H       2.787686    1.272966    1.615600
H       2.288799   -1.175874    3.453722
H       3.268604   -2.349855    2.524108
