17

C       0.297522    1.185849    0.927925
C       0.054356    0.029935    0.001812
N      -1.061354   -0.558096   -0.045986
C      -1.385688   -1.731536   -0.845531
C      -0.314645   -2.792249   -1.023453
N      -0.535394   -3.994544   -0.708767
O       0.898070   -2.407137   -1.545978
C       1.086244   -1.049991   -1.852501
O       1.204747   -0.237672   -0.708452
H       1.139654    0.960838    1.590280
H       0.567439    2.079981    0.356934
H      -0.595848    1.377453    1.519649
H      -2.218888   -2.244452   -0.362441
H      -1.755427   -1.416360   -1.831629
H       0.282397   -4.572368   -0.916275
H       2.046630   -0.988726   -2.363950
H       0.286797   -0.672943   -2.500626
