16

C       0.003808    1.601746   -0.031046
C      -0.023597    0.069711   -0.039643
C       0.619532   -0.521475    1.235415
C      -1.465143   -0.453562   -0.105745
O      -2.434376    0.223791    0.105626
C       0.720571   -0.465678   -1.266495
F       1.993280   -0.047044   -1.300920
F       0.741783   -1.810701   -1.286846
F       0.130926   -0.063722   -2.404126
H       1.025825    1.966895    0.092746
H      -0.403989    2.006793   -0.959614
H      -0.610311    1.971430    0.791676
H       0.125610   -0.112789    2.120264
H       0.538652   -1.611149    1.262328
H       1.679311   -0.256707    1.275093
H      -1.552116   -1.538993   -0.325303
