15

C      -0.004889    1.547659    0.075448
C      -0.111389    0.060548   -0.043359
C       0.362813   -0.755700   -1.281168
C      -0.532034   -1.866302   -0.737051
C      -0.437021   -1.712126    0.790761
O       0.494865   -0.671999    1.071987
C      -1.394869   -0.867248    0.031005
H       1.048799    1.847548    0.084627
H      -0.494987    2.037671   -0.771223
H      -0.468484    1.898281    1.001860
H      -0.033448   -0.342016   -2.212448
H       1.441378   -0.927003   -1.361289
H      -0.842921   -2.786576   -1.214501
H      -0.572554   -2.510048    1.508544
H      -2.460053   -0.690521    0.086615
