19

C      -0.059588    1.460785    0.077091
C       1.342102    0.841099   -0.076917
C       2.263700    0.509806   -1.201344
C       2.222305   -0.762463   -1.627117
C       1.076153   -1.675105   -1.187662
C       0.996733   -1.998206    0.356196
O       0.099866   -1.019100    0.948502
C       0.108763   -0.014056   -0.039204
C      -0.178799   -0.781671   -1.315405
H      -0.245907    1.913196    1.045087
H      -0.555437    1.956531   -0.752106
H       1.847147    0.858100    0.888698
H       3.005309    1.215341   -1.566160
H       2.921927   -1.132261   -2.371673
H       1.061085   -2.594813   -1.775510
H       0.572832   -2.989821    0.540150
H       1.982048   -1.935996    0.831634
H      -0.186150   -0.192034   -2.231272
H      -1.121535   -1.328184   -1.211420
