15

C       0.002943    1.496492    0.014079
C       0.006088   -0.007662    0.009544
N       0.108186   -0.620312   -1.178383
C       0.104496   -1.947093   -1.183234
C      -0.000008   -2.713834   -0.015840
N      -0.068134   -4.103325   -0.037211
C      -0.092966   -1.970495    1.164235
N      -0.091033   -0.640364    1.184177
H       0.905273    1.884518   -0.469134
H      -0.851402    1.880359   -0.553353
H      -0.049608    1.869785    1.037242
H       0.188309   -2.436913   -2.153765
H       0.359890   -4.538765   -0.841826
H       0.213205   -4.557053    0.820222
H      -0.171627   -2.476003    2.126854
