17

N      -0.021423    1.310901    0.114074
C      -0.063938   -0.045477    0.042038
N      -1.111760   -0.790453    0.029957
C      -0.709764   -2.177908    0.005412
C      -1.591674   -3.157435    0.741491
C      -1.591874   -3.130354   -0.765973
C       0.813779   -2.273045    0.001118
C       1.231005   -0.808865   -0.003698
O       2.333021   -0.318508   -0.054819
H       0.863900    1.733013   -0.119396
H      -0.855627    1.829821   -0.105333
H      -1.113006   -3.992337    1.242405
H      -2.452069   -2.745219    1.255352
H      -2.452555   -2.699606   -1.264003
H      -1.113883   -3.946819   -1.297016
H       1.223774   -2.768044    0.887659
H       1.223756   -2.781899   -0.876612
