22

C      -0.458594    1.605796   -0.922893
C      -0.537482    0.117881   -0.592037
N       0.384509   -0.632463   -1.445277
C       1.705452   -0.943179   -0.919588
C       0.698777   -2.025093   -1.135000
C       0.090735   -2.775810    0.026036
O      -1.290865   -3.093597   -0.211572
C       0.846822   -4.072884    0.336097
O       0.189791   -4.805514    1.345472
H       0.545199    1.997600   -0.727819
H      -0.687834    1.778048   -1.978106
H      -1.167802    2.173664   -0.312789
H      -0.336314   -0.027941    0.482021
H      -1.546028   -0.265116   -0.779009
H       2.543782   -0.822538   -1.600587
H       1.918356   -0.669845    0.114579
H       0.804432   -2.642149   -2.030763
H       0.077746   -2.162230    0.931149
H      -1.361277   -3.444716   -1.107511
H       0.944423   -4.662904   -0.594290
H       1.859136   -3.848810    0.688920
H      -0.751565   -4.730241    1.139016
