18

O      -0.100815    1.313881   -0.051709
N       0.023502   -0.091091   -0.055257
C      -1.114494   -0.654073    0.051897
C      -2.478389   -0.006128    0.205413
C      -3.347883   -1.088299    0.890352
C      -2.651470   -2.418714    0.612687
O      -2.837678   -3.455565    1.525614
C      -2.307849   -2.740258   -0.810571
C      -1.252055   -2.126237    0.117182
H       0.819332    1.594676   -0.088634
H      -2.407525    0.920616    0.777304
H      -2.871962    0.268227   -0.780486
H      -3.354155   -0.943538    1.975622
H      -4.388532   -1.071598    0.548506
H      -3.678502   -3.881897    1.326574
H      -2.153652   -3.789280   -1.037731
H      -2.712881   -2.148691   -1.625559
H      -0.403496   -2.735842    0.397432
