21

C      -0.113146    1.551957   -0.084755
C       0.044334    0.053033    0.030471
C       1.350360   -0.698187   -0.210450
C       2.623195    0.069328   -0.087835
C       2.799961    0.537886    1.152504
C       1.694367    0.115750    2.057913
C       1.969845   -0.311258    3.486654
C       1.239186    0.975357    3.223052
C       0.724742   -0.651462    1.182792
H       0.789057    2.083587    0.223991
H      -0.334212    1.838764   -1.119076
H      -0.941017    1.904495    0.540543
H      -0.820023   -0.496590   -0.337520
H       1.320072   -1.587464   -0.831694
H       3.293171    0.237891   -0.923033
H       3.617094    1.168766    1.486036
H       1.402824   -1.153738    3.870361
H       2.993099   -0.262025    3.843765
H       1.762141    1.909536    3.400057
H       0.175318    1.014752    3.430463
H       0.236969   -1.522632    1.607516
