19

C       0.057843    1.528442   -0.044855
N       1.278198    0.706214    0.054563
C      -0.033820    0.047718    0.035799
C      -0.472724   -0.742766    1.274164
C      -1.525603   -1.700780    0.702283
C      -2.619232   -0.898947   -0.047306
N      -1.922503   -1.073240   -1.369074
C      -1.011255   -2.077066   -0.715064
C      -0.468894   -0.776486   -1.152021
H      -0.154466    2.134786    0.832053
H      -0.178974    2.005157   -0.993214
H       1.726908    0.634146   -0.856211
H       0.385232   -1.290521    1.679880
H      -0.874317   -0.103725    2.067090
H      -1.852123   -2.490999    1.377169
H      -3.578862   -1.417958   -0.103029
H      -2.786452    0.140768    0.256258
H      -0.801606   -3.053255   -1.136264
H       0.064621   -0.671241   -2.092260
