22

C      -0.054371    1.583081    0.050298
C      -0.044313    0.057559   -0.063974
C       0.782522   -0.475413   -1.256449
C       2.191512   -0.081662   -1.135285
N       3.304485    0.212805   -1.027595
C       0.675133   -2.000287   -1.408790
C      -0.697386   -2.604300   -1.820965
C       0.068431   -3.623100   -2.708223
C       1.305742   -2.686580   -2.651548
H       0.957758    1.976470    0.184782
H      -0.477278    2.045479   -0.848324
H      -0.656843    1.903626    0.905057
H       0.346099   -0.386517    0.859067
H      -1.066873   -0.316876   -0.185242
H       0.401023   -0.011961   -2.177620
H       1.038818   -2.475074   -0.491018
H      -1.343482   -2.992574   -1.030459
H      -1.275337   -1.898369   -2.427476
H       0.247558   -4.563903   -2.180619
H      -0.350119   -3.850997   -3.690581
H       1.335911   -2.005792   -3.508632
H       2.292554   -3.138041   -2.534125
