19

C       0.280385    1.575299   -0.023267
C       0.027050    0.050093   -0.073856
C      -1.464545   -0.285986   -0.025112
C       0.676162   -0.510379   -1.324527
O       0.078797   -0.835712   -2.325204
C       2.212831   -0.665416   -1.311729
O       2.868230   -0.457058   -0.313085
C       2.878143   -1.109054   -2.597403
O       4.262257   -1.217661   -2.444436
H       1.348308    1.805883   -0.026356
H      -0.190502    2.076318   -0.875415
H      -0.152074    1.987409    0.892767
H       0.551262   -0.392483    0.781217
H      -1.984709    0.129121   -0.892554
H      -1.630459   -1.366957   -0.027608
H      -1.915522    0.128397    0.881108
H       2.424458   -2.063849   -2.905422
H       2.610477   -0.388423   -3.386697
H       4.448922   -0.976338   -1.524558
