14

C       0.128602    1.437349   -0.124643
N      -0.029007    0.001367   -0.114869
C      -1.153824   -0.562885    0.052256
N      -1.209104   -1.956497    0.046636
C      -2.329605   -2.725764    0.210923
O      -2.352658   -3.921577    0.202452
O      -3.510054   -2.027876    0.399358
N      -3.570798   -0.634018    0.422789
C      -2.484261    0.020962    0.262502
H       0.842640    1.719836    0.657284
H       0.575432    1.737368   -1.079314
H      -0.786004    2.026315    0.022036
H      -0.340192   -2.454599   -0.091862
H      -2.609649    1.095992    0.292590
