19

C       0.037272    1.443417   -0.010853
C       0.006420   -0.043200   -0.054597
C      -0.048356   -0.930231   -1.058054
C      -0.018800   -2.289581   -0.344054
C       1.086270   -2.023778    0.735405
C       0.056470   -0.952328    1.198490
O       0.167489   -0.362378    2.455577
C      -1.039278   -2.020076    0.823328
O      -2.355251   -1.638184    0.575936
H       0.932777    1.799674    0.512056
H       0.024970    1.876503   -1.014832
H      -0.819020    1.847553    0.544640
H      -0.083518   -0.760492   -2.125880
H      -0.044612   -3.200563   -0.937796
H       1.213685   -2.837606    1.455671
H       2.048023   -1.659658    0.371905
H      -0.713627   -0.089515    2.734324
H      -1.076919   -2.835499    1.551025
H      -2.316282   -0.975391   -0.128269
