19

C      -0.021101    1.533305    0.025497
C      -0.003452    0.000829   -0.017015
C      -1.429947   -0.560845   -0.001413
C       0.818404   -0.536309   -1.243904
N       1.902430   -1.274291   -0.586627
C       2.925228   -1.955182   -1.196373
O       3.799678   -2.551317   -0.609539
C       1.718677   -1.168399    0.795134
N       0.713475   -0.496936    1.183744
H       0.996931    1.934464    0.026751
H      -0.552276    1.939803   -0.841910
H      -0.521751    1.878813    0.933662
H      -1.996314   -0.206675   -0.869498
H      -1.417785   -1.654852   -0.019362
H      -1.949468   -0.243370    0.906386
H       0.225703   -1.199330   -1.881717
H       1.216928    0.273702   -1.862584
H       2.860304   -1.897390   -2.299679
H       2.436602   -1.659766    1.440148
