23

C      -0.034757    1.599683    0.084189
C       0.059224    0.083105    0.027039
C       1.104953   -0.577923   -0.914984
C       1.370149   -1.646992    0.181121
C       2.797170   -2.126024    0.407176
C       2.916340   -3.086974    1.609351
C       4.279899   -3.544906    1.844985
C       5.413527   -3.906468    2.016723
C       0.717535   -0.679599    1.211483
H       0.946391    2.046539    0.282356
H      -0.403540    2.012918   -0.861552
H      -0.715901    1.927652    0.877705
H      -0.931267   -0.341881   -0.173326
H       0.771590   -0.920780   -1.898072
H       1.977999    0.071219   -1.051365
H       0.713399   -2.511242    0.020327
H       3.169843   -2.632307   -0.491606
H       3.455254   -1.264354    0.573600
H       2.538166   -2.589095    2.511776
H       2.262805   -3.954538    1.447122
H       6.410621   -4.232969    2.178183
H       1.477236   -0.060268    1.703639
H       0.062388   -1.100259    1.978922
