25

C       0.079346    1.572658   -0.038546
C       0.033146    0.044733   -0.007780
O       0.832197   -0.470801    1.058539
C      -1.400908   -0.495161    0.049526
C      -1.466744   -2.024692    0.015307
C      -2.889039   -2.618678   -0.077649
C      -2.805100   -4.147841   -0.188759
C      -3.764543   -2.223038    1.114955
O      -3.569516   -2.091787   -1.227309
H       1.115528    1.921321   -0.056971
H      -0.438580    1.968491   -0.918100
H      -0.407668    1.993837    0.850314
H       0.519462   -0.342828   -0.912766
H       0.473830   -0.119388    1.881587
H      -1.876131   -0.111822    0.963747
H      -1.978785   -0.089987   -0.788752
H      -0.897746   -2.381928   -0.856348
H      -0.952774   -2.434872    0.891370
H      -2.345361   -4.588562    0.701688
H      -3.804939   -4.574105   -0.311549
H      -2.198123   -4.442559   -1.053473
H      -3.923137   -1.142489    1.142301
H      -4.744445   -2.702099    1.035538
H      -3.301795   -2.533122    2.056727
H      -3.095324   -2.393895   -2.009696
