17

C       0.283250    0.763388    0.503298
O      -0.293585    0.351003   -0.726291
C       0.539787   -0.438819   -1.533349
C       0.569031   -1.923353   -1.139259
C       1.296594   -2.881857   -2.108790
O       2.214377   -3.278619   -1.043754
C       1.610357   -2.421493   -0.148873
N       1.882811   -2.182552    1.051800
H       0.527790   -0.082950    1.155207
H       1.201894    1.345638    0.332033
H      -0.453966    1.405317    0.991486
H       0.126433   -0.373234   -2.547378
H       1.566013   -0.037419   -1.565565
H      -0.444825   -2.238904   -0.880488
H       0.725785   -3.737388   -2.476139
H       1.838819   -2.405670   -2.931194
H       2.681789   -2.731986    1.372308
