19

C       0.131319    1.492269    0.007486
C       0.057028    0.038960    0.023528
C      -0.005051   -1.165134    0.026969
C      -0.058414   -2.600312    0.036064
O       0.935233   -3.248702   -0.729895
C      -0.554085   -3.351894    1.275218
C      -1.374571   -3.373532    0.005777
C      -2.698950   -2.660251   -0.062412
O      -1.375871   -4.538055   -0.760679
H       0.983503    1.832683   -0.591134
H      -0.772714    1.934302   -0.426005
H       0.252021    1.900780    1.017031
H       1.769105   -3.195421   -0.250405
H      -0.013537   -4.259578    1.523492
H      -0.894905   -2.761067    2.118252
H      -2.679533   -1.736421    0.519203
H      -2.943875   -2.416276   -1.100334
H      -3.488504   -3.307506    0.332600
H      -0.470207   -4.656999   -1.079460
