14

N       0.152441    1.412879    0.017585
C       0.038781    0.000348    0.060890
C      -0.469540   -0.695125    1.262427
C      -1.365100   -0.744510    0.006658
C      -2.538733    0.075558   -0.021839
C      -3.489295    0.812335   -0.045462
C      -1.411478   -1.982690   -0.722189
N      -1.405320   -2.977264   -1.314363
H       0.116611    1.753455   -0.938082
H      -0.598366    1.865369    0.528825
H       0.800991   -0.513563   -0.515536
H      -0.008649   -1.628285    1.563905
H      -0.858101   -0.093693    2.077087
H      -4.350402    1.433762   -0.064860
