17

C       0.036270    1.411103    0.321280
C       0.022385   -0.029477    0.131291
C      -0.010185   -1.224208   -0.024489
C      -0.045890   -2.645245   -0.219240
N      -1.166954   -3.222978   -0.424068
N       1.218875   -3.285839   -0.149242
C       2.441055   -2.563479   -0.502257
C       1.331942   -4.560484    0.372163
O       2.366957   -5.179354    0.457531
H       1.045218    1.819318    0.201556
H      -0.619824    1.908103   -0.401008
H      -0.314493    1.672878    1.325539
H      -1.048549   -4.217508   -0.617895
H       2.653053   -1.770936    0.220514
H       3.252616   -3.290129   -0.496101
H       2.345077   -2.120714   -1.496054
H       0.365030   -4.950733    0.731170
