19

C       0.074235    1.258542   -0.209736
O      -0.033607   -0.084511    0.197079
C      -1.351257   -0.595909    0.139963
C      -1.850690   -0.931797   -1.259101
C      -1.395845   -2.322062   -1.658869
C      -2.821914   -2.091663   -1.205414
C      -2.506036   -2.800386    0.142067
C      -1.080934   -3.028171   -0.316015
C      -1.384075   -1.983768    0.741435
H       1.111897    1.563070   -0.050933
H      -0.170917    1.397226   -1.273703
H      -0.581846    1.918204    0.381104
H      -2.040144    0.093368    0.656441
H      -1.978755   -0.171980   -2.020237
H      -1.013892   -2.583300   -2.635629
H      -3.745850   -2.144956   -1.764443
H      -3.166981   -3.442597    0.707275
H      -0.429955   -3.877257   -0.163486
H      -1.076084   -2.150904    1.765901
