10

O      -0.055863    1.445245    0.010365
C       0.043915    0.024922    0.001773
C       0.693673   -0.477094   -1.218347
C       1.230068   -0.857966   -2.223202
C       0.716796   -0.490121    1.203796
C       1.272233   -0.881720    2.194078
H       0.842831    1.795355    0.003679
H      -0.997898   -0.319976    0.009863
H       1.699734   -1.200583   -3.112177
H       1.758701   -1.233795    3.070228
