21

C      -1.474116    1.574778    0.270576
O      -0.591394    0.509195    0.534919
C      -0.838383   -0.668855   -0.215954
C      -0.402484   -0.548286   -1.676253
C      -0.074552   -1.765820    0.524309
O      -0.344251   -3.004490   -0.100897
C       0.323901   -4.088791    0.486766
C      -0.044216   -5.346580   -0.281021
O       0.379533   -6.438978   -0.014068
H      -1.235996    2.371310    0.979901
H      -1.364355    1.972727   -0.748217
H      -2.524607    1.276173    0.413179
H      -1.912356   -0.917118   -0.175314
H      -1.002288    0.188264   -2.217661
H       0.648669   -0.246063   -1.731120
H      -0.516090   -1.513512   -2.175660
H       1.004769   -1.543626    0.503018
H      -0.391579   -1.780373    1.577823
H       1.419972   -3.964902    0.460268
H       0.043227   -4.225014    1.545173
H      -0.749126   -5.163016   -1.121924
