19

C       0.005424    1.643425    0.244676
C       0.020097    0.129256    0.074186
C       1.063880   -0.477031   -0.947266
C       1.670477   -1.284728    0.202568
N       2.128150   -0.287629    1.202646
C       0.709290   -0.706077    1.175617
N      -1.319149   -0.411716   -0.153574
C      -2.030313   -0.219535   -1.294637
O      -1.622104    0.347831   -2.287044
H       1.011661    1.997624    0.477624
H      -0.340468    2.118199   -0.676770
H      -0.666791    1.934574    1.059547
H       0.575422   -1.078870   -1.711359
H       1.738110    0.242480   -1.415494
H       2.111823   -2.272860    0.167086
H       2.571404   -0.800509    1.964465
H       0.238204   -1.135784    2.054092
H      -1.801167   -0.827836    0.628484
H      -3.044799   -0.663737   -1.226464
