19

O      -0.238145    1.290640   -0.710521
C       0.005998    0.142936    0.084973
C      -1.280726   -0.603633    0.344483
O      -1.792286   -1.375886   -0.755239
C      -1.429109   -2.066157    0.460372
C      -0.263725   -3.038695    0.366812
O      -0.594767   -4.234099   -0.308664
C      -2.648747   -2.590482    1.200491
O      -3.223954   -3.713906    0.532112
H      -0.602971    0.980167   -1.546967
H       0.752272   -0.514136   -0.378476
H       0.417190    0.509100    1.032092
H      -2.038602    0.014458    0.831347
H       0.564543   -2.589400   -0.185392
H       0.093289   -3.235783    1.393585
H      -1.466321   -4.510308    0.007881
H      -2.371003   -2.944549    2.198562
H      -3.388242   -1.787172    1.314194
H      -3.468499   -3.411837   -0.351658
