17

N      -0.037685    1.259102    0.228738
C      -0.041964    0.019002   -0.024380
O       1.109897   -0.698026   -0.377129
C       0.724420   -2.017158   -0.715067
C       1.345971   -3.220995    0.005772
C       0.196629   -4.261713   -0.127535
N      -1.040667   -3.445455   -0.202218
C      -0.707015   -2.125926   -0.271874
C      -1.172755   -0.909908    0.055840
H       0.905778    1.637205    0.140126
H       0.817549   -2.145422   -1.804046
H       2.283454   -3.575130   -0.426505
H       1.512344   -2.966904    1.057116
H       0.310294   -4.863729   -1.037051
H       0.157740   -4.949259    0.721960
H      -1.845383   -3.735299    0.329523
H      -2.135590   -0.615768    0.441679
