23

C       0.018363    1.610078    0.139284
C       0.031338    0.079296    0.063937
C      -1.358013   -0.554429   -0.073010
O      -2.162311   -0.278044    1.083140
C      -2.129267   -0.190728   -1.359045
C      -3.199034   -1.301286   -1.526267
C      -2.754511   -2.458979   -0.588654
C      -1.332565   -2.094911   -0.135375
O      -0.352469   -2.456627   -1.105346
H       1.032208    1.999225    0.271799
H      -0.389751    2.060579   -0.771654
H      -0.574589    1.967265    0.989177
H       0.648154   -0.250928   -0.776184
H       0.493174   -0.323342    0.973450
H      -2.404649    0.652465    1.055276
H      -2.565447    0.811932   -1.300731
H      -1.435521   -0.194487   -2.204568
H      -4.192745   -0.942647   -1.246902
H      -3.263085   -1.624428   -2.568276
H      -3.405723   -2.519134    0.286313
H      -2.774659   -3.437725   -1.080173
H      -1.082722   -2.514053    0.848866
H      -0.412257   -3.406620   -1.241656
