16

C       0.032624    1.483708   -0.219942
O       1.435790    1.510029    0.223000
C       1.331539    0.139736    0.615619
C       0.819356   -0.317114    2.015182
C      -0.251360   -1.058836    1.158933
C       0.551698   -1.942476    0.152768
C       1.702490   -1.066440   -0.242590
N       0.409420   -1.049936   -1.040163
C      -0.052582   -0.029210    0.003129
H      -0.604422    2.106068    0.418383
H      -0.066832    1.795006   -1.264287
H       1.471300   -0.909337    2.661680
H       0.398324    0.524533    2.571188
H      -1.191482   -1.445750    1.551456
H       0.544800   -3.020289    0.054205
H       2.643332   -1.426095   -0.643295
