18

C       0.034599    1.585478   -0.036854
C       0.046502    0.060489    0.001077
C       0.727196   -0.623072   -1.218683
C       1.267631   -1.933180   -0.669719
O       2.470271   -1.769183    0.104851
C       1.220768   -1.916631    0.800773
C       0.718794   -0.546577    1.273065
O       1.782335    0.226866    1.795323
H       1.052578    1.983068   -0.010050
H      -0.455589    1.950443   -0.945461
H      -0.500369    1.998630    0.824256
H      -0.990638   -0.301091    0.019066
H       0.019749   -0.788593   -2.036752
H       1.551845   -0.022319   -1.619230
H       1.229904   -2.851537   -1.250024
H       1.136812   -2.805611    1.419875
H      -0.012372   -0.642918    2.081806
H       2.553332    0.004955    1.255145
