13

O       0.080721    1.367844   -0.085902
C       0.062559    0.017080   -0.058518
C      -0.023315   -0.723727   -1.229606
C      -0.038193   -2.113909   -1.139406
N       0.025348   -2.789282    0.009242
C       0.108080   -2.068218    1.131721
C       0.129977   -0.681811    1.154956
O       0.213586    0.088360    2.285657
H       0.144919    1.681296    0.825953
H      -0.076867   -0.215956   -2.185349
H      -0.104882   -2.710947   -2.045111
H       0.159719   -2.621720    2.070102
H       0.255245   -0.477267    3.063337
