18

C      -0.056862    1.492849   -0.045276
C       0.021981   -0.009238    0.015033
N      -1.180443   -0.708922   -0.420859
C      -1.247278   -2.000683    0.277747
C      -0.213670   -1.961097    1.417390
O      -0.164664   -2.731529    2.345583
C       0.679838   -0.792164    1.177030
C       1.302001   -0.717401   -0.230450
O       1.330043   -1.815931   -1.084588
H       0.894166    1.951010    0.237402
H      -0.304249    1.817420   -1.061758
H      -0.828276    1.874250    0.633862
H      -1.977441   -0.143490   -0.149843
H      -2.245338   -2.200142    0.675576
H      -0.978975   -2.824831   -0.392944
H       1.212261   -0.362193    2.016495
H       2.187788   -0.082653   -0.271106
H       2.011535   -2.422494   -0.773799
