11

O      -0.011566    0.060962   -0.709197
C       0.048029    1.173098   -0.273261
N      -1.138194    1.921714   -0.037478
N      -1.376355    3.071927    0.669294
N      -0.598416    4.054586    0.610325
C       0.568946    4.067644   -0.175355
N       1.458217    3.169860   -0.322381
C       1.331011    1.887296    0.191645
O       2.141756    1.318316    0.867591
H      -1.963227    1.330873   -0.022975
H       0.724355    5.042953   -0.635207
