12

F      -0.008443    0.106548   -0.159698
C       0.003908    1.439805   -0.012630
F       1.274596    1.838856    0.049133
F      -0.547379    1.972180   -1.114728
C      -0.763504    1.860729    1.222823
C      -2.148717    1.227412    1.431637
O      -1.678260    0.592110    2.664230
C      -0.417706    1.103494    2.521292
O       0.526001    0.953116    3.220801
H      -0.713848    2.945771    1.320948
H      -2.966704    1.918369    1.636561
H      -2.442730    0.475779    0.698225
