17

C      -0.035772    1.601449    0.046395
C       0.079588    0.073926   -0.051807
C      -0.998586   -0.579313    0.665650
N      -1.863263   -1.083157    1.246832
C       0.475253   -0.763508   -1.260587
C       1.774305   -0.305349   -1.950556
C       2.554972    0.779371   -1.308665
N       2.589643   -0.563024   -0.705308
C       1.294575   -0.888506   -0.007346
H       0.155758    2.081946   -0.913617
H      -1.052537    1.865686    0.346393
H       0.644553    2.014879    0.796315
H      -0.205694   -1.469292   -1.717099
H       2.077741   -0.739838   -2.897266
H       3.499948    1.012590   -1.792920
H       2.114177    1.612061   -0.785457
H       1.328647   -1.665043    0.745432
