19

C       0.295020    1.251852    0.445995
N       0.050127   -0.131175    0.047055
C       0.547058   -0.491702   -1.273750
C       2.013307   -0.310895   -1.406714
N       3.154105   -0.131170   -1.463719
C       0.104738   -1.928452   -1.581410
C      -1.383244   -2.084068   -1.800718
C       1.048000   -2.919917   -2.115790
O       0.714443   -2.896548   -0.720522
H       1.356862    1.543126    0.433840
H      -0.249633    1.925776   -0.224514
H      -0.094050    1.400889    1.456355
H       0.448476   -0.776441    0.722303
H       0.077578    0.178413   -2.006124
H      -1.689453   -1.601120   -2.735046
H      -1.643846   -3.143202   -1.854618
H      -1.934840   -1.623079   -0.977886
H       0.650379   -3.768500   -2.670415
H       2.071709   -2.641315   -2.352788
