16

C      -0.174662    1.603638    0.025351
C       0.068754    0.104781    0.025764
N       0.690884   -0.523734   -1.214540
C       2.068510   -0.030454   -1.297668
C       1.788945   -1.118082   -0.324223
C       1.143700   -0.550613    0.882636
N       1.340126   -0.778255    2.112690
O       0.402900   -0.076705    2.899837
H       0.743417    2.182136   -0.104625
H      -0.866593    1.869916   -0.780060
H      -0.619565    1.897373    0.979737
H      -0.878530   -0.416915    0.202509
H       2.562924   -0.318229   -2.220772
H       2.321456    0.963755   -0.941140
H       2.159091   -2.129582   -0.442889
H       0.647440   -0.344557    3.791953
