20

C       0.034700    1.356953    0.114795
C       0.042662   -0.147392    0.059145
C       0.649373   -1.053770   -1.060121
C       0.051012   -2.039475   -0.017867
C       0.696990   -1.140984    1.074408
C      -1.198279   -1.108946    0.004246
C      -2.210833   -1.189518    1.155139
C      -3.105245   -0.032131    1.178359
N      -3.800890    0.890991    1.180180
H       1.056925    1.750439    0.129083
H      -0.477997    1.779356   -0.755805
H      -0.479842    1.721191    1.009941
H       0.165385   -1.015166   -2.040396
H       1.738831   -1.046111   -1.149137
H       0.053795   -3.129069   -0.065708
H       1.789939   -1.136775    1.107524
H       0.289980   -1.181781    2.086929
H      -1.743504   -1.066115   -0.944897
H      -2.823168   -2.092278    1.041276
H      -1.724160   -1.265740    2.131644
