17

C      -0.155030    1.578612    0.040109
C      -0.029241    0.073792   -0.061660
C       0.893319   -0.582413   -1.090326
C       2.128972   -0.278948   -0.188360
C       2.615598   -1.728971   -0.156266
C       1.084492   -1.793993   -0.115194
C       0.222027   -2.937894    0.036507
N      -0.463447   -3.863951    0.135941
N       1.011909   -0.578766    0.861647
H       0.804135    2.086754   -0.096204
H      -0.846174    1.954396   -0.721584
H      -0.551128    1.858799    1.021236
H      -1.006667   -0.407960    0.058626
H       0.844591   -0.626151   -2.183084
H       2.709838    0.638849   -0.131104
H       3.094712   -2.114774   -1.058139
H       3.126371   -2.048932    0.754403
