15

O       0.238075    1.321091    0.236037
C      -0.024312   -0.045105    0.290542
C      -1.474463   -0.342350   -0.049941
N      -2.245405    0.622693   -0.330525
N      -1.805730   -1.704708   -0.013000
C      -3.028968   -2.251945   -0.274605
O      -4.044032   -1.659944   -0.583873
C      -3.026580   -3.778499   -0.139520
O      -2.045465   -4.405299    0.164617
H      -0.608621    1.730667   -0.014314
H       0.619268   -0.601722   -0.412773
H       0.187327   -0.450568    1.295262
H      -3.194920    0.322204   -0.544118
H      -1.087857   -2.379065    0.227913
H      -4.012806   -4.233313   -0.349685
