19

C      -0.069944    1.490087    0.035065
C       0.012440   -0.020231   -0.033787
C      -1.234100   -0.703073   -0.579618
O      -1.365023   -2.066171   -0.170861
C      -1.077785   -2.222876    1.185725
O       0.299294   -2.041334    1.438613
C       0.744967   -0.755260    1.083464
C       1.368480   -0.655940   -0.289985
O       1.498084   -1.802300   -1.062198
H       0.860758    1.919903    0.418150
H      -0.243766    1.920343   -0.958356
H      -0.883422    1.818653    0.692668
H      -2.122366   -0.141325   -0.248519
H      -1.225967   -0.719932   -1.673264
H      -1.669341   -1.517915    1.795338
H      -1.310727   -3.254467    1.455612
H       1.153498   -0.199039    1.924120
H       2.213138    0.015126   -0.420215
H       1.063216   -2.517159   -0.576570
