25

C       0.321738    1.685378    0.549145
C       0.020526    0.184363    0.402326
C       0.448001   -0.543421    1.687931
C      -1.465251   -0.070088    0.027481
C      -1.833599    0.569014   -1.320175
C      -1.842166   -1.585490    0.056455
C      -3.349858   -1.838308   -0.160128
C      -1.046675   -2.370122   -0.888544
C      -0.403313   -3.016732   -1.673079
H       1.368082    1.838178    0.832713
H       0.151674    2.243137   -0.374704
H      -0.299972    2.136305    1.332694
H       0.634965   -0.206557   -0.419995
H      -0.208095   -0.285901    2.529048
H       0.444211   -1.629943    1.572016
H       1.465694   -0.252604    1.967462
H      -2.082686    0.396399    0.810214
H      -1.257998    0.114537   -2.133598
H      -2.894541    0.439841   -1.549324
H      -1.636590    1.642860   -1.323620
H      -1.609726   -1.952390    1.062791
H      -3.586844   -2.889778    0.022872
H      -3.939227   -1.227347    0.531491
H      -3.658836   -1.602572   -1.180766
H       0.166545   -3.592446   -2.359568
