16

C       0.060771    1.559885   -0.258252
O       1.345288    1.678546    0.380488
C       1.492337    0.247721    0.510827
C       1.300091   -0.243104    1.996154
N      -0.042601   -0.879947    2.123029
C      -0.597216   -0.659490    1.013864
O      -1.567922   -1.289160    0.274426
C      -0.788549   -0.938004   -0.941887
C       0.080009    0.034225   -0.106422
H      -0.731762    2.108488    0.264558
H       0.103194    1.891369   -1.304281
H       2.410312   -0.110535    0.036421
H       2.042526   -0.998397    2.274816
H       1.420074    0.610141    2.671810
H      -0.296563   -1.829856   -1.336231
H      -1.428171   -0.470142   -1.693392
