21

C      -0.055632    1.512245    0.014785
C       0.062812   -0.012781   -0.003400
O      -1.249563   -0.565568   -0.118712
C       1.049230   -0.634049   -1.030898
C       2.398806    0.037110   -0.671270
C       2.245272   -0.775894    0.623810
C       1.524054   -1.900070   -0.185023
C       0.579000   -2.141585    1.000600
C       0.775340   -0.619898    1.228931
H       0.864170    2.012179    0.324255
H      -0.329725    1.899969   -0.974849
H      -0.844792    1.792184    0.718700
H      -1.644074   -0.204251   -0.919216
H       0.697339   -0.716296   -2.061033
H       3.224073   -0.367479   -1.265980
H       2.470972    1.126883   -0.658989
H       3.055022   -0.970106    1.326882
H       2.058621   -2.684614   -0.720616
H      -0.433217   -2.509983    0.839695
H       1.086704   -2.732425    1.769420
H       0.591145   -0.149047    2.195007
