23

C      -0.063845    1.636125    0.050765
C       0.010337    0.108336    0.168689
C      -1.360293   -0.553104    0.064855
C      -2.017462   -0.691425   -1.354641
C      -1.164082   -1.983309   -1.541932
C      -1.458837   -2.110596   -0.023255
C      -0.782558   -3.070948    0.912952
O      -2.891218   -2.317538   -0.008933
C      -3.353548   -1.324422   -0.952475
H       0.926039    2.090197    0.158827
H      -0.466087    1.941716   -0.920952
H      -0.712458    2.060775    0.824800
H       0.698295   -0.277514   -0.591577
H       0.453274   -0.155223    1.138381
H      -2.022697   -0.133320    0.832224
H      -2.036983    0.117920   -2.084184
H      -1.561410   -2.772716   -2.185409
H      -0.119004   -1.788674   -1.779689
H       0.298924   -2.907169    0.920830
H      -1.161598   -2.943745    1.932001
H      -0.974380   -4.104149    0.606941
H      -4.038910   -0.624116   -0.459731
H      -3.878194   -1.810007   -1.784490
