23

C      -0.058444    1.537711   -0.010295
C      -0.004720    0.026593    0.036515
C       1.274500   -0.717650   -0.246996
C       0.699128   -0.705483    1.161657
C       1.403082    0.038281    2.307356
C       1.586360   -1.023719    3.423886
C       0.632088   -2.118479    3.016681
C       0.152555   -1.957076    1.779623
C      -0.784630   -2.880226    1.064397
H       0.873918    1.984633    0.347893
H      -0.221618    1.891447   -1.034466
H      -0.872709    1.930141    0.609655
H      -0.906917   -0.454502   -0.334566
H       1.228107   -1.634420   -0.825911
H       2.175173   -0.133715   -0.414164
H       2.349544    0.491988    2.001845
H       0.761745    0.848125    2.673381
H       2.618917   -1.399257    3.463518
H       1.373001   -0.617756    4.419496
H       0.402243   -2.963483    3.657504
H      -1.009960   -3.760243    1.672409
H      -1.733992   -2.385220    0.824907
H      -0.364370   -3.229601    0.112946
