12

N       0.029545    1.306083   -0.132772
C      -0.031902   -0.023607   -0.023052
N      -1.160299   -0.663495    0.094132
C      -1.043395   -2.024620    0.195974
N       0.006840   -2.772970    0.194211
O       1.234827   -2.067044    0.065893
C       1.277745   -0.720715   -0.044162
N       2.355453   -0.056918   -0.160254
H       0.939077    1.731952   -0.220192
H      -0.816616    1.849733   -0.126715
H      -1.969392   -2.584427    0.294898
H       3.173848   -0.666571   -0.159513
