17

O       0.046198    1.410918    0.115267
C       0.007826    0.019739   -0.016506
C      -1.439142   -0.512755    0.075945
C      -1.595954   -1.934874   -0.427860
O      -1.699385   -2.080452   -1.851696
C      -0.542488   -2.612628   -1.208994
C       0.756568   -1.914327   -1.551974
C       0.674024   -0.418643   -1.316456
O       1.136187    0.408189   -2.070181
H       0.492857    1.729686   -0.686445
H       0.592387   -0.454416    0.793064
H      -1.774135   -0.440335    1.114614
H      -2.082886    0.145386   -0.516523
H      -2.297303   -2.562609    0.121476
H      -0.496575   -3.702055   -1.191050
H       1.560699   -2.311132   -0.916506
H       1.038898   -2.098516   -2.592646
