17

C       0.073092    1.548129   -0.058348
C      -0.052922    0.028235    0.050703
O       0.580691   -0.593258   -1.076446
C       1.518050   -1.567093   -0.640533
C       1.532606   -1.481669    0.865701
C       2.439337   -2.324676    1.701670
C       0.631648   -0.579560    1.245155
H       1.124666    1.848162   -0.026888
H      -0.360905    1.894877   -1.000540
H      -0.456974    2.038854    0.765074
H      -1.125678   -0.233433    0.038674
H       1.219683   -2.571244   -0.988521
H       2.506738   -1.359495   -1.080790
H       3.492666   -2.140344    1.454923
H       2.301064   -2.128301    2.767804
H       2.260912   -3.393225    1.526399
H       0.394928   -0.296598    2.263918
