14

C       0.070079    1.439630   -0.113288
N      -0.016636   -0.006907   -0.114411
C      -1.130878   -0.574942    0.068727
N      -1.162107   -1.984402    0.058580
C      -2.256994   -2.774056    0.235822
O      -2.286771   -3.967464    0.227781
O      -3.434434   -2.052409    0.443838
C      -3.383118   -0.696730    0.450055
N      -2.369165    0.046106    0.285950
H       0.780913    1.750858    0.660902
H       0.486753    1.769836   -1.071858
H      -0.886596    1.944658    0.054662
H      -0.282903   -2.458018   -0.096016
H      -4.372356   -0.282278    0.622698
