27

C      -0.649022    1.389884    0.095759
C      -0.378322   -0.116354    0.175339
C       0.825394   -0.451311    1.059055
C       0.591380   -0.312039    2.593133
C       0.649468   -1.864968    2.761279
C       1.636566   -2.368559    3.813523
C      -0.730406   -2.483710    3.001426
C       1.171231   -1.962881    1.279394
C       0.618876   -3.022846    0.333452
H       0.209249    1.921986   -0.329764
H      -1.519937    1.605992   -0.531085
H      -0.840025    1.814129    1.087352
H      -1.277158   -0.624572    0.546554
H      -0.206337   -0.506162   -0.836242
H       1.680847    0.128453    0.693905
H       1.403066    0.204466    3.113157
H      -0.352681    0.157666    2.888680
H       1.295981   -2.125338    4.827325
H       1.755123   -3.457668    3.758119
H       2.626142   -1.918757    3.677957
H      -1.474092   -2.138154    2.277466
H      -0.695511   -3.577714    2.945391
H      -1.096323   -2.214717    3.999302
H       2.261819   -2.070640    1.308197
H      -0.468450   -2.968425    0.230343
H       1.050249   -2.914474   -0.668070
H       0.867674   -4.029949    0.686928
