17

C      -0.105150    1.386294   -0.314743
C       0.013652   -0.101472    0.076480
C       0.744768   -0.294225    1.405820
C      -1.372921   -0.737649    0.115958
O      -1.894656   -1.149239    1.130908
C      -2.062571   -0.827914   -1.160996
C      -2.647737   -0.926121   -2.219543
C      -3.299227   -1.035058   -3.405801
C      -3.877979   -1.131659   -4.461410
H       0.891000    1.827509   -0.411271
H      -0.627445    1.513489   -1.266849
H      -0.650288    1.944970    0.453202
H       0.563136   -0.611019   -0.727806
H       0.203977    0.195321    2.220219
H       0.833386   -1.353077    1.661776
H       1.749467    0.134904    1.349182
H      -4.388366   -1.217419   -5.389130
