19

O       0.000483    1.365685    0.054831
C       0.020610   -0.050809    0.073063
C      -1.363633   -0.619836   -0.078833
C      -2.270855   -0.449251   -1.321302
C      -3.073354   -1.563652   -0.637962
C      -3.238583   -1.131937    0.881254
C      -2.465522   -2.399584    1.306349
C      -1.750898   -2.163177   -0.032465
O      -2.225540   -0.116972    0.970629
H      -0.664899    1.633774    0.699328
H       0.651526   -0.370636   -0.762470
H       0.469559   -0.438738    1.002010
H      -2.715801    0.535697   -1.476885
H      -1.796642   -0.813209   -2.237152
H      -3.853425   -2.160715   -1.106204
H      -4.171232   -0.798535    1.333444
H      -1.910611   -2.348559    2.246466
H      -3.080027   -3.303303    1.264372
H      -1.113271   -2.881727   -0.544255
