23

C       0.157716    1.421764    0.007598
C      -0.015900   -0.099636    0.000754
C      -1.481121   -0.503118    0.012803
O      -1.543571   -1.941436    0.005206
C      -2.781009   -2.478449    0.015175
O      -3.793027   -1.822529    0.029651
C      -2.710398   -3.992314    0.006496
C      -4.086330   -4.658533    0.014669
C      -3.996505   -6.186279    0.006341
H       1.216779    1.694072   -0.001155
H      -0.311321    1.881219   -0.869230
H      -0.294159    1.871310    0.898463
H       0.463981   -0.531442   -0.885093
H       0.481147   -0.541313    0.872150
H      -1.999292   -0.126673    0.901802
H      -2.016511   -0.116644   -0.861580
H      -2.126768   -4.296126   -0.871857
H      -2.112216   -4.305250    0.871800
H      -4.643126   -4.317135    0.893818
H      -4.657706   -4.308547   -0.851675
H      -4.992188   -6.639785    0.012340
H      -3.470466   -6.550596   -0.883372
H      -3.455831   -6.559352    0.883567
