17

C       0.105918    1.481681   -0.017065
C      -0.312667    0.021041   -0.025759
O      -1.090299   -0.457039    0.770667
N       0.268859   -0.725547   -1.036674
C       0.163662   -2.151310   -1.094913
C      -1.214958   -2.756290   -1.273682
C      -0.258429   -2.774049   -2.422338
C       1.128033   -2.880505   -0.297219
N       1.920991   -3.448998    0.324085
H       1.057343    1.584349    0.516339
H       0.237407    1.883916   -1.025727
H      -0.649827    2.059197    0.514840
H       1.015279   -0.302469   -1.567509
H      -1.412904   -3.680338   -0.745341
H      -2.032214   -2.047938   -1.281038
H      -0.416541   -2.075295   -3.235544
H       0.210931   -3.710241   -2.699053
