19

C       0.663767   -0.288457   -1.424005
C       0.001347    0.091632   -0.085669
C      -1.470990   -0.375939   -0.046211
C      -2.222060    0.131324    1.199190
N      -2.304696    1.594824    1.190021
C      -3.546087   -0.519215    1.299451
N      -4.602110   -0.985544    1.369131
C       0.750881   -0.452358    1.046472
C       1.355567   -0.920632    1.974832
H       1.699366    0.058743   -1.455276
H       0.666121   -1.373700   -1.563827
H       0.121319    0.166055   -2.258844
H      -0.004118    1.184198    0.007084
H      -1.985174   -0.011907   -0.943754
H      -1.512976   -1.469279   -0.071262
H      -1.643545   -0.162162    2.082797
H      -2.954342    1.899223    0.469869
H      -2.674727    1.931403    2.073446
H       1.901083   -1.322937    2.792490
