22

C      -0.014646    1.614172    0.031374
C      -0.059855    0.087465    0.115759
C       0.846490   -0.507999    1.219856
C       0.737029   -2.050317    1.294768
C       1.183167   -2.643055    2.641729
C       1.236344   -4.170679    2.598856
O       2.406842   -2.086487    3.102683
C       2.241310   -0.110545    0.994359
N       3.332099    0.191179    0.755942
H       0.994800    1.969302   -0.195565
H      -0.684500    1.977062   -0.753411
H      -0.327206    2.072566    0.976002
H      -1.083227   -0.245700    0.323289
H       0.223713   -0.351576   -0.848002
H       0.541814   -0.086277    2.186586
H      -0.307558   -2.332702    1.120070
H       1.319610   -2.492387    0.476165
H       0.454515   -2.336221    3.403777
H       1.967151   -4.511170    1.855428
H       1.533351   -4.563982    3.574347
H       0.263387   -4.596919    2.332153
H       3.092804   -2.247000    2.444108
