25

C       0.013242    1.451567   -0.008054
O      -0.077195    0.049475   -0.045519
C       0.644310   -0.520225   -1.117048
C       0.481105   -2.034385   -1.066845
C       1.233342   -2.739422   -2.188357
C       2.788689   -2.771017   -2.178243
C       2.727104   -4.218885   -2.732541
C       1.238674   -4.304757   -2.278070
C       1.044107   -5.051347   -0.960076
H       1.054038    1.793492    0.113308
H      -0.391183    1.914117   -0.923193
H      -0.572083    1.796712    0.848088
H       0.274051   -0.125622   -2.080241
H       1.711263   -0.244100   -1.048827
H       0.827951   -2.385954   -0.088479
H      -0.589569   -2.268185   -1.123514
H       0.891880   -2.341968   -3.152630
H       3.317235   -2.022086   -2.773463
H       3.186473   -2.739357   -1.158582
H       2.829537   -4.246505   -3.820960
H       3.415649   -4.951777   -2.302427
H       0.548915   -4.713013   -3.023827
H       1.742031   -4.707965   -0.188531
H       0.028914   -4.926343   -0.568921
H       1.216782   -6.123763   -1.102531
