18

C      -0.057599    1.557439   -0.063221
C       0.045265    0.055160    0.050437
N      -1.194711   -0.642581    0.415699
C      -0.626848   -1.407812    1.422472
O      -1.063600   -2.290437    2.110169
C       0.744652   -0.742631    1.212577
C       1.562466   -1.554398    0.158843
C       0.902056   -0.728409   -0.987831
O       0.102116   -1.401161   -1.931127
H       0.933299    2.010988   -0.165814
H      -0.645798    1.838875   -0.944594
H      -0.545461    1.981114    0.819245
H      -1.948939   -0.914808   -0.201650
H       1.261721   -0.287879    2.054637
H       2.642472   -1.411975    0.233201
H       1.344337   -2.624659    0.144872
H       1.628862   -0.066768   -1.480196
H       0.672147   -1.936019   -2.492575
