21

O      -0.463294    0.216148   -0.420502
C      -0.172988    1.287535    0.043140
C       1.225759    1.882814    0.038124
C       1.372874    2.716259   -1.265059
C       2.818517    3.098172   -1.616084
C       3.515298    4.076961   -0.661626
C       3.789898    3.529321    0.750929
C       2.565062    3.356481    1.617130
C       1.469222    2.664653    1.307827
H      -0.953481    1.948145    0.492446
H       1.921116    1.035116   -0.034747
H       0.966940    2.120644   -2.090940
H       0.755075    3.619608   -1.186469
H       3.418263    2.180081   -1.689737
H       2.813586    3.536675   -2.621381
H       4.474742    4.362217   -1.109859
H       2.924149    4.998032   -0.580986
H       4.318289    2.568058    0.660220
H       4.487343    4.203282    1.258756
H       2.593186    3.844324    2.589034
H       0.665080    2.633245    2.042260
