19

C       0.175685   -1.251656   -0.131389
C       0.101576   -0.053929   -0.080183
C       0.003678    1.409208   -0.026945
C       1.398646    2.102034    0.051824
C       2.155706    1.798861    1.324295
C       3.068520    0.602775    1.423460
C       3.652024    1.991541    1.372138
C      -0.764622    1.923716   -1.165766
C      -1.370597    2.374659   -2.099532
H       0.238141   -2.310784   -0.175245
H      -0.540138    1.675238    0.892021
H       1.985664    1.801442   -0.822398
H       1.225261    3.180500   -0.036303
H       1.619311    2.062385    2.233422
H       3.104985    0.060344    2.361503
H       3.167521   -0.025171    0.545388
H       4.150291    2.300056    0.458604
H       4.087793    2.405713    2.274554
H      -1.916677    2.761494   -2.923982
