17

N       0.240928    1.410787    0.004029
C       0.064213   -0.011793    0.014458
C      -0.499756   -0.696189    1.257810
C      -0.989862    0.115789    2.333626
N      -1.402550    0.804208    3.168219
C      -1.271190   -0.690615   -0.051246
C      -2.629690   -0.068795   -0.341933
O      -2.982640   -1.199111   -1.171593
C      -1.741295   -1.877136   -0.884213
H      -0.042925    1.811891   -0.883812
H      -0.290166    1.865597    0.739367
H       0.889945   -0.555245   -0.442428
H      -0.034941   -1.627458    1.565419
H      -3.300901    0.042526    0.518398
H      -2.609613    0.871987   -0.907648
H      -1.160764   -2.085328   -1.792519
H      -1.901558   -2.813817   -0.334422
