22

C       0.180506    1.580687    0.150208
C      -0.214517    0.131203   -0.152134
C       0.635887   -0.485532   -1.259041
C       2.101977   -0.835015   -0.921012
O       1.881642   -2.241249   -1.177983
C       0.502230   -2.010796   -1.551756
C      -0.452771   -2.842964   -0.728836
C      -0.102232   -4.242612   -0.392316
N      -0.115246   -3.200908    0.655379
H       1.223253    1.651310    0.479763
H       0.071015    2.215497   -0.736248
H      -0.444314    2.002999    0.942693
H      -0.137791   -0.475546    0.757055
H      -1.269997    0.096597   -0.450229
H       0.546787    0.117515   -2.167630
H       2.864300   -0.419465   -1.590110
H       2.405512   -0.655226    0.118564
H       0.345235   -2.231377   -2.617392
H      -1.501451   -2.593865   -0.883329
H      -0.881664   -4.994189   -0.307728
H       0.864189   -4.609788   -0.725694
H       0.853977   -2.925702    0.810833
