20

C      -0.294546    1.607830    0.006418
C      -0.019428    0.110747   -0.010907
C      -1.328016   -0.678320    0.006268
C       0.988446   -0.482510   -1.042364
O       1.996312    0.451084   -1.406088
C       2.746047    0.751586   -0.223147
C       2.280520   -0.251358    0.815244
C       1.539220   -1.319050    0.132310
N       0.830777   -0.435344    1.132170
H       0.592443    2.207481   -0.194182
H      -1.043557    1.867106   -0.749067
H      -0.692719    1.893162    0.986406
H      -1.941929   -0.419618   -0.862682
H      -1.145627   -1.756911   -0.010011
H      -1.896983   -0.450172    0.912613
H       0.602768   -0.951718   -1.947608
H       3.815785    0.613968   -0.429886
H       2.593158    1.794425    0.078907
H       2.919691   -0.463471    1.665234
H       1.655206   -2.389669    0.242711
