17

C       0.115442    1.479765   -0.209681
C      -0.049985    0.006931    0.108062
O       1.161021   -0.780649    0.133664
C       0.450997   -0.621165    1.355525
C       1.130439    0.143626    2.481536
C       2.005993   -0.715620    3.271769
C       2.714198   -1.442580    3.914398
C      -1.172469   -0.624404   -0.552664
C      -2.117035   -1.117141   -1.109146
H       1.000384    1.895299    0.274083
H       0.222474    1.612492   -1.289957
H      -0.767038    2.040502    0.112813
H      -0.065933   -1.522048    1.687501
H       1.705196    0.979632    2.072620
H       0.354928    0.573844    3.129577
H       3.348792   -2.078010    4.480912
H      -2.946854   -1.564448   -1.598535
