11

C       0.033869   -1.172231   -0.018905
C       0.004328    0.027732    0.018008
C      -0.046800    1.470099    0.064979
C       0.544306    2.182175    1.230210
O       1.230981    2.144322   -0.007400
C      -1.123279    2.090778   -0.670681
C      -2.026468    2.598640   -1.277701
H       0.063541   -2.233419   -0.057322
H       0.124054    3.145670    1.512869
H       0.975819    1.587242    2.033130
H      -2.821435    3.047625   -1.820766
