16

O       0.059832    1.388495    0.048348
C      -0.003996    0.007006    0.058546
C      -1.378349   -0.724379    0.006453
C      -0.683050   -2.108236   -0.034204
N       0.150555   -1.900809   -1.252710
C       0.658353   -0.631489   -1.189343
O       1.444357   -0.061967   -1.916232
C       0.214659   -1.998094    1.210725
C       0.633517   -0.732828    1.248239
H       0.656430    1.614612   -0.683392
H      -1.970621   -0.561691    0.907254
H      -1.959716   -0.511474   -0.894145
H      -1.310795   -2.991574   -0.129499
H       0.667367   -2.647237   -1.691565
H       0.489300   -2.821379    1.856266
H       1.334349   -0.256781    1.920529
