19

C      -0.001952    1.522079    0.013168
C      -0.015266   -0.013889   -0.011348
C      -1.470608   -0.510157    0.056332
C       0.701938   -0.526829   -1.278847
C       1.089980   -1.989610   -1.115136
O       1.858603   -2.190045    0.079425
C       1.504420   -1.420601    1.137234
N       0.680481   -0.464804    1.205931
H       1.025497    1.898176    0.017183
H      -0.517303    1.931252   -0.862530
H      -0.498242    1.888517    0.915862
H      -2.060491   -0.086931   -0.763949
H      -1.531174   -1.601005   -0.002538
H      -1.923440   -0.206005    1.003801
H       0.072032   -0.408689   -2.167367
H       1.611181    0.063157   -1.442706
H       0.203210   -2.633797   -1.063965
H       1.717695   -2.342716   -1.936774
H       2.063770   -1.735147    2.017342
