16

O      -0.933227    1.067827    0.324551
C       0.200328    0.861496   -0.019651
C       1.283175    1.929513    0.048503
C       1.456968    2.487807    1.467076
N       2.606187    3.374650    1.549020
C       3.820616    2.676406    1.143556
C       3.724503    1.720636   -0.047597
O       4.690259    1.253973   -0.581789
O       2.486630    1.340813   -0.468356
H       0.551107   -0.123556   -0.395758
H       0.988240    2.748153   -0.623985
H       0.540396    3.008767    1.752674
H       1.602768    1.663262    2.176155
H       2.457528    4.185610    0.956391
H       4.616552    3.390667    0.922786
H       4.182567    2.063907    1.981397
