20

C      -0.083394    1.433932   -0.005312
C       0.059048   -0.072712   -0.053519
C       0.769295   -0.671561   -1.259671
C       1.439878   -0.654528    0.110512
O       2.534815    0.105862    0.483284
C       1.394613   -2.191159    0.186905
C       0.691056   -2.182662   -1.187252
C      -0.340346   -3.076229   -1.755425
N       1.059590   -3.113452   -2.246432
H       0.806685    1.927203   -0.404721
H      -0.949991    1.766059   -0.586288
H      -0.222354    1.784577    1.023898
H      -0.787892   -0.623479    0.356897
H       0.982320   -0.080448   -2.143945
H       2.443411    0.334792    1.415285
H       2.390605   -2.632816    0.106127
H       0.858808   -2.633120    1.033976
H      -0.652849   -3.969350   -1.220565
H      -1.106213   -2.637314   -2.390631
H       1.126775   -2.622265   -3.135500
