17

C       0.092308    1.461820   -0.099446
C       0.015782   -0.057727    0.013789
O       0.831868   -0.687069   -1.025308
C       1.709525   -1.310679   -0.073886
C       0.880237   -0.769807    1.110729
C       1.599620    0.015234    2.175550
O       1.239709    1.065152    2.641413
C      -1.365173   -0.526813   -0.039016
C      -2.503810   -0.910456   -0.068829
H       1.132328    1.793907   -0.077345
H      -0.353942    1.762991   -1.050999
H      -0.445033    1.941986    0.719870
H       1.735732   -2.400015   -0.184232
H       2.734333   -0.921091   -0.142146
H       0.322395   -1.561317    1.621912
H       2.529669   -0.483716    2.538499
H      -3.510194   -1.248781   -0.103048
