21

C       0.000886    1.608394    0.128077
C      -0.011198    0.082817    0.016619
C       1.108557   -0.461814   -0.928444
C       1.990343   -0.724650    0.321457
C       0.716717   -0.611024    1.203305
N      -1.372182   -0.403692   -0.193525
C      -2.022553   -0.212983   -1.391638
N      -3.225311   -0.911466   -1.496017
O      -1.587393    0.476293   -2.297086
H       1.016550    1.975378    0.307382
H      -0.371305    2.051225   -0.797466
H      -0.633470    1.934444    0.958975
H       0.797478   -1.390048   -1.413926
H       1.483534    0.223124   -1.690424
H       2.533283   -1.670902    0.360842
H       2.699238    0.084490    0.513529
H       0.781664   -0.049920    2.139282
H       0.290861   -1.597673    1.417634
H      -1.629369   -1.224450    0.332679
H      -3.759447   -1.035472   -0.648324
H      -3.779149   -0.589441   -2.275861
