15

C      -0.016614    1.558873   -0.034485
C      -0.007199    0.064912    0.033776
C      -0.032595   -0.807829   -1.022491
O      -0.014930   -2.133845   -0.648429
C       0.023109   -2.096843    0.703252
C       0.029592   -0.805837    1.171082
N       0.069110   -0.957880    2.541853
C       0.082826   -2.318325    2.774367
N       0.055299   -3.044305    1.668528
H       0.879049    1.990597    0.427586
H      -0.052056    1.901062   -1.072193
H      -0.884496    1.981966    0.484962
H      -0.063825   -0.632997   -2.085616
H       0.085414   -0.242277    3.247398
H       0.113272   -2.716985    3.776840
