20

C      -0.468541    0.991862   -0.038523
O       0.403493   -0.102685   -0.235908
C       0.904733   -0.611779    0.961995
C       0.185177   -1.674706    1.762273
C      -0.948807   -2.456337    1.108247
C      -0.412415   -2.919069   -0.268331
C       1.127263   -2.966829   -0.121913
C       1.471663   -1.996418    1.001340
H       0.045172    1.830307    0.457076
H      -0.806083    1.318910   -1.024851
H      -1.341515    0.716132    0.569675
H       1.436906    0.137001    1.553623
H       0.178192   -1.574247    2.843082
H      -1.182063   -3.319403    1.743273
H      -1.873842   -1.877276    1.012330
H      -0.828187   -3.885671   -0.566882
H      -0.682359   -2.190423   -1.033159
H       1.459875   -3.968693    0.174236
H       1.633646   -2.723899   -1.061491
H       2.416534   -2.133972    1.516987
