20

C       0.282943    1.687301   -0.116121
C       0.088442    0.169826    0.007476
C       0.677563   -0.575622   -1.205105
C       2.133318   -0.875882   -0.828838
O       3.002262   -1.220896   -1.587084
C       2.285337   -0.663595    0.681023
C       0.851117   -0.475991    1.206814
C       0.748152    0.262806    2.539412
H       1.340226    1.960204   -0.212348
H      -0.231269    2.064417   -1.005952
H      -0.120239    2.219476    0.749994
H      -0.984009   -0.029313    0.106976
H       0.180173   -1.543947   -1.352090
H       0.617793   -0.038771   -2.155427
H       2.836823   -1.489450    1.138061
H       2.890465    0.240180    0.834455
H       0.417904   -1.476885    1.341612
H       1.218496    1.250215    2.489849
H      -0.297047    0.403134    2.836528
H       1.246461   -0.298950    3.336236
