14

O      -0.145155    1.428752   -0.055838
C      -0.072354    0.056592   -0.018287
C      -0.296085   -0.862612   -1.187021
C      -1.226149   -0.921224    0.008942
C      -0.544120   -1.655122    1.210478
O       0.784976   -2.074625    0.844807
C       0.578453   -0.707190    1.192358
C      -1.205897   -2.317156    2.286372
N      -1.783198   -2.835168    3.144409
H       0.606693    1.763640   -0.558426
H      -0.743437   -0.363128   -2.040785
H       0.377623   -1.678928   -1.414626
H      -2.289228   -0.735086   -0.042223
H       1.154403   -0.280906    2.005468
