19

C      -0.129554    1.499544   -0.088654
C      -0.052820    0.005647    0.095912
O       1.234539   -0.615797    0.006976
C       0.537839   -0.681420    1.258544
C       1.186766    0.037631    2.408189
O       0.252059    0.372636    3.478033
C       1.126929   -0.222831    4.443522
C       1.245894   -1.692623    4.213156
C       2.079641   -0.729453    3.387235
H       0.659392    2.022285    0.454618
H      -0.033442    1.750845   -1.150075
H      -1.098216    1.872805    0.259656
H      -0.832065   -0.549394   -0.431035
H       0.149853   -1.671276    1.502030
H       1.684668    0.945551    2.052623
H       1.272008    0.294571    5.384155
H       1.817576   -2.239348    4.956755
H       0.410434   -2.238462    3.784892
H       3.159739   -0.757665    3.359492
