13

O      -0.933540    0.423935   -0.485840
C      -0.451281    1.506237   -0.310904
C       0.999147    1.710518    0.173035
C       1.741678    2.502934   -0.795018
C       2.295143    3.184372   -1.615692
C       0.972826    2.379417    1.566717
O      -0.071700    2.594421    2.136229
C       2.261235    2.692543    2.141136
C       3.339929    2.921486    2.622837
H      -0.999363    2.449007   -0.503043
H       1.451687    0.717187    0.289586
H       2.803892    3.775032   -2.337471
H       4.287930    3.133317    3.055674
