17

C      -0.377979    1.070566   -0.287171
C       1.022850    1.158717    0.264867
C       0.380919   -0.185944    0.073098
N      -0.018121   -0.898205    1.248238
C      -1.007251   -1.861007    1.137157
C      -2.020038   -2.002736    0.210466
N      -2.692206   -3.101381    0.655717
N      -2.145612   -3.609573    1.761703
N      -1.116658   -2.859966    2.059754
H      -1.189522    1.356902    0.371124
H      -0.536209    1.289108   -1.337349
H       1.830038    1.436970   -0.402644
H       1.132950    1.508374    1.284864
H       0.739210   -0.789798   -0.763352
H       0.741450   -1.210596    1.838678
H      -2.305415   -1.450614   -0.666307
H      -3.504593   -3.545174    0.259338
