17

O       0.115034    1.422722    0.099352
C       0.047052    0.059325    0.002772
C       0.366740   -0.784243    1.295113
C      -1.152990   -0.875901    1.586608
C      -1.290788   -0.883052    0.057602
C      -0.300453   -1.950542   -0.562527
C       0.646732   -2.160711    0.645859
C       0.368539   -0.739032   -1.235073
O       0.666624   -0.419675   -2.354531
H       0.055462    1.781273   -0.795694
H       1.073393   -0.400403    2.029452
H      -1.517719   -1.732155    2.162463
H      -1.547187    0.052664    2.005491
H      -2.197806   -0.652509   -0.496283
H      -0.647619   -2.802665   -1.139360
H       1.686856   -2.308017    0.340519
H       0.350915   -2.988721    1.296063
