15

O       0.098766    1.410897   -0.241497
C       0.065296    0.054497   -0.107642
C       0.008986   -0.820575   -1.163343
N      -0.007306   -2.099859   -0.620140
C       0.035592   -2.019026    0.743555
N       0.027154   -3.184585    1.515011
C       0.063371   -3.240602    2.881989
O       0.106125   -2.285927    3.625066
C       0.082416   -0.689821    1.107786
H       0.135039    1.799490    0.637087
H      -0.018568   -0.655109   -2.225611
H      -0.054687   -2.945717   -1.158979
H      -0.003245   -4.067114    1.028137
H       0.048171   -4.289733    3.234765
H       0.123990   -0.321692    2.118071
