21

C       0.433319    1.365000   -0.040184
C       0.090187   -0.092337   -0.026916
C      -0.152086   -0.881202   -1.077156
C      -0.517349   -2.299392   -0.700997
C      -0.254407   -2.322168    0.813367
C       1.211271   -2.594202    1.270967
C       1.234829   -1.231373    2.017202
C      -0.081768   -0.848198    1.280053
O      -1.135038   -0.338571    2.079903
H       1.386341    1.560555    0.468279
H       0.508983    1.753593   -1.059029
H      -0.331729    1.953421    0.483175
H      -0.113127   -0.548312   -2.110586
H      -1.562695   -2.520123   -0.956872
H       0.092028   -3.043776   -1.229894
H      -0.992939   -2.878617    1.391844
H       1.368324   -3.482277    1.886267
H       1.906893   -2.629854    0.428339
H       1.051198   -1.341019    3.089755
H       2.107519   -0.589212    1.867253
H      -0.855911    0.511042    2.438191
