19

O       0.019289    1.336616    0.012823
C       0.086749   -0.041455    0.000374
C       0.686971   -0.989513   -1.088447
C       0.030884   -1.909254   -0.017365
C       0.674232   -1.009711    1.078317
C      -1.171229   -0.929752   -0.015301
C      -2.304632   -0.886128    1.021679
O      -3.295112   -0.851875   -0.027063
C      -2.292366   -0.866680   -1.064544
H       0.914091    1.693042    0.021354
H       0.221218   -0.965492   -2.076593
H       1.777887   -1.030100   -1.157480
H      -0.011631   -2.995847   -0.027743
H       1.764266   -1.051698    1.159403
H       0.196890   -1.004062    2.061194
H      -2.413789   -1.772407    1.660819
H      -2.339035    0.014900    1.647778
H      -2.319503    0.045868   -1.674097
H      -2.393904   -1.740877   -1.721334
