20

N       0.328450    0.999608   -0.066435
C      -0.034124   -0.267537   -0.417714
O       0.697138   -0.990468   -1.073353
C      -1.419118   -0.696390    0.033574
C      -2.435912   -0.825280   -1.154860
C      -2.469423   -2.369104   -0.964634
C      -1.859548   -3.160737   -2.116352
O      -1.783224   -4.551862   -1.836181
C      -1.555915   -2.225265    0.289046
H       1.207595    1.357358   -0.402935
H      -0.281458    1.612186    0.444581
H      -1.776252   -0.064371    0.850816
H      -3.387088   -0.323782   -0.964891
H      -2.053103   -0.488213   -2.122224
H      -3.460751   -2.773770   -0.743906
H      -2.493972   -3.067152   -3.005735
H      -0.871815   -2.744819   -2.360868
H      -1.088958   -4.677120   -1.181724
H      -0.602970   -2.757486    0.229283
H      -2.041366   -2.467130    1.236571
