23

C       0.253388    1.309442    0.354002
C      -0.184825   -0.116585   -0.007671
C      -1.700458   -0.193768   -0.245527
C       0.565309   -0.629385   -1.224830
C       2.029969   -1.047820   -1.247315
C       2.353549   -1.869097   -0.007128
O       1.206860   -2.732371   -0.225027
C       0.922205   -2.066442   -1.470714
C       0.506976   -2.928209   -2.618273
H       1.330925    1.358840    0.540595
H       0.025036    2.009746   -0.458695
H      -0.262956    1.665403    1.251895
H       0.050539   -0.778614    0.833156
H      -1.998873    0.437724   -1.091401
H      -2.014002   -1.218887   -0.465788
H      -2.256100    0.147722    0.634102
H       0.299513   -0.117165   -2.150538
H       2.754426   -0.633361   -1.936351
H       3.284266   -2.441168   -0.096103
H       2.323201   -1.372136    0.969907
H      -0.457859   -3.405557   -2.411360
H       0.398263   -2.329676   -3.527351
H       1.241526   -3.718487   -2.803140
