15

N      -0.287757    1.319765   -0.196513
C      -0.149225    0.067698   -0.129669
O       1.075126   -0.535712   -0.347343
C       1.234525   -1.871004   -0.666503
O       2.337700   -2.324686   -0.667962
C      -0.010755   -2.632808   -1.087362
C      -1.233285   -2.227028   -0.303508
N      -0.974997   -1.955155    1.110674
C      -1.281500   -0.828807    0.197703
H       0.593421    1.766789   -0.456438
H      -0.170121   -2.439307   -2.156482
H       0.215814   -3.695455   -0.975602
H      -2.171165   -2.694675   -0.590548
H      -1.791826   -2.157072    1.680519
H      -2.230772   -0.314436    0.285750
