13

N       0.086984    1.418730    0.161049
C       0.013144    0.048072   -0.031503
N      -1.166764   -0.469012   -0.163157
O      -1.221274   -1.841101   -0.481558
C      -0.124909   -2.660818   -0.570452
N      -0.221072   -3.901730   -0.813936
C       1.166613   -2.005488   -0.378385
F       2.230467   -2.772268   -0.478173
C       1.252445   -0.694651   -0.127322
H       0.801325    1.721590    0.808086
H      -0.813569    1.838352    0.352234
H      -1.200900   -4.170244   -0.918357
H       2.208466   -0.199416   -0.012163
