19

C      -0.033301    1.234866   -0.466794
C       0.009967   -0.187004    0.128373
C       0.708468   -0.211513    1.492255
C      -1.364302   -0.768749    0.231153
N      -2.041430   -1.121010    1.270251
C      -3.269553   -1.565701    0.779571
C      -3.257980   -1.460743   -0.574036
N      -4.114222   -1.820313   -1.603263
O      -2.051373   -0.955213   -0.949905
H       0.981915    1.619226   -0.606372
H      -0.538743    1.243251   -1.436136
H      -0.566983    1.917112    0.203240
H       0.578280   -0.817996   -0.569749
H       0.162834    0.399316    2.216794
H       0.761433   -1.226667    1.892440
H       1.724797    0.183065    1.399898
H      -4.052539   -1.923467    1.427727
H      -5.056292   -1.988743   -1.277595
H      -4.117718   -1.152671   -2.364995
