15

C      -0.000545    1.532255    0.046033
C      -0.052119    0.036701    0.052287
C      -1.310082   -0.844127   -0.079210
C      -0.684947   -1.778719    0.990568
O      -1.097781   -2.698871    1.626212
C       0.580928   -0.934007    1.071089
N       1.117962   -0.731440   -0.293076
C       1.421308   -0.709175    2.202838
N       2.065925   -0.524724    3.145076
H       0.990687    1.879789    0.345234
H      -0.206650    1.912203   -0.960632
H      -0.747493    1.951050    0.726383
H      -2.228598   -0.399611    0.316069
H      -1.507890   -1.249744   -1.075594
H       0.929523   -1.530165   -0.897379
