20

O      -0.002047   -0.023372   -0.187149
C      -0.014554    1.155926   -0.008053
C      -1.102393    2.222345    0.184898
N      -0.030905    3.159379    0.606346
C       1.050744    2.250344    0.150900
C      -0.056959    4.491436    0.053119
C      -1.144905    5.461512    0.584173
C      -0.075806    6.588431    0.584394
C       1.021661    5.489660    0.549927
H      -1.581290    2.478887   -0.775364
H      -1.881087    2.025900    0.928710
H       1.857372    2.074514    0.869681
H       1.492259    2.518853   -0.823895
H      -0.074227    4.472466   -1.054850
H      -2.045177    5.601980   -0.018416
H      -1.433019    5.180711    1.601071
H      -0.098003    7.173110   -0.339275
H      -0.071394    7.278093    1.430390
H       1.348961    5.216856    1.557097
H       1.898490    5.653217   -0.080752
