21

C      -0.022941    1.362786    0.792704
C       0.051576    0.125139   -0.078725
O       1.053959   -0.172419   -0.689719
C      -1.191466   -0.783141   -0.133339
O      -2.339481   -0.137640    0.421850
C      -1.466952   -1.343796   -1.552168
C      -1.930424   -2.816473   -1.364107
C      -2.006486   -3.033837    0.161674
C      -0.965865   -2.052321    0.717945
H       0.964560    1.821649    0.852340
H      -0.734716    2.080836    0.370433
H      -0.399386    1.115261    1.789254
H      -2.717361    0.437117   -0.251305
H      -2.220855   -0.729899   -2.057758
H      -0.550657   -1.286676   -2.142393
H      -2.882881   -3.021097   -1.859643
H      -1.192204   -3.493711   -1.805252
H      -2.996012   -2.757463    0.537582
H      -1.813797   -4.069092    0.456120
H       0.050055   -2.418809    0.537591
H      -1.078370   -1.841941    1.784717
