17

O      -0.029636    0.009221   -0.002699
C       0.001637    1.202745    0.003662
O       1.159155    1.896909    0.013172
C       1.066101    3.300578    0.015309
C       0.562648    4.083497   -1.226846
C       1.496751    5.191869   -0.740179
C       1.460953    5.188541    0.798214
C       0.505266    4.078310    1.236230
C       2.344124    4.221619    0.047074
H      -0.894268    1.850789    0.001124
H       0.934663    3.630305   -2.149306
H      -0.512364    4.281688   -1.306870
H       1.831379    6.061565   -1.289106
H       1.769475    6.055807    1.365966
H      -0.572181    4.276829    1.267226
H       0.834005    3.621364    2.173201
H       3.402409    4.011948    0.071332
