15

C      -1.099800    1.489485   -0.511732
C       0.042061    0.537414   -0.101773
C      -0.456470   -0.675046    0.543187
N      -0.821621   -1.664944    1.017483
C       0.971830    0.257537   -1.322265
O       1.313737    1.167288   -2.028983
N       1.364361   -1.064992   -1.479937
C       2.226132   -1.577917   -2.457002
O       2.783980   -0.951168   -3.310527
H      -0.663931    2.346589   -1.025764
H      -1.797954    0.989637   -1.187386
H      -1.647831    1.828339    0.369469
H       0.685054    1.054173    0.622721
H       0.977471   -1.741183   -0.834242
H       2.327529   -2.673786   -2.329894
