16

C       0.009905    1.501868    0.024207
C      -0.045524    0.004467   -0.029964
C      -1.168773   -0.716469   -0.083595
C      -1.137083   -2.216150   -0.164313
N       0.193181   -2.714267    0.171071
C       1.362918   -2.004347    0.135025
O       2.463156   -2.509409    0.260788
N       1.197275   -0.634735   -0.030826
H       0.577242    1.903270   -0.824381
H      -0.993770    1.928814   -0.002120
H       0.507596    1.845320    0.939452
H      -2.132423   -0.224683   -0.096870
H      -1.863673   -2.651618    0.536087
H      -1.442277   -2.557749   -1.169776
H       0.338424   -3.709903    0.218136
H       2.045798   -0.102673    0.070071
