20

C       0.299519    1.256321    1.046817
C       0.090420    0.165891   -0.011640
C      -1.243642   -0.559150    0.112882
O      -2.275108    0.171248   -0.532668
C      -1.549518   -2.012851   -0.075004
C      -0.697929   -2.985491    0.762209
C       0.253351   -2.410759    1.746047
N      -1.182459   -2.398214    2.065858
C      -1.906084   -1.353941    1.246735
H       1.230048    1.803686    0.870189
H      -0.515779    1.988808    1.030605
H       0.339779    0.834286    2.056327
H       0.079432    0.620189   -1.009172
H       0.927779   -0.533918   -0.012586
H      -2.453095    0.956105   -0.002578
H      -2.210735   -2.350189   -0.862302
H      -0.753231   -4.057075    0.596279
H       0.788208   -3.137672    2.353121
H       0.793089   -1.489014    1.593243
H      -2.872584   -1.032615    1.614943
