15

O      -0.827756    0.912668    0.572035
C       0.170135    0.874699   -0.098746
C       1.348003    1.830410    0.063209
C       1.372556    2.522376    1.427849
C       2.709147    3.233883    1.582095
O       3.811697    2.338493    1.347265
C       3.614355    1.379115    0.418579
N       2.569571    1.088755   -0.234960
H       0.315860    0.131089   -0.911326
H       1.206637    2.581126   -0.734444
H       0.547086    3.230898    1.531502
H       1.254652    1.772408    2.216564
H       2.795261    4.069945    0.876435
H       2.856550    3.621748    2.592291
H       4.533579    0.815777    0.268418
