20

C       0.061899    1.536453    0.019012
C      -0.019538    0.027055    0.001306
C       0.455803   -0.716187   -1.278765
C      -0.695767   -1.741639   -1.134683
C      -0.432917   -2.804993   -0.039750
C      -0.761245   -1.763880    1.058873
C       0.379057   -0.742251    1.292130
C      -1.354772   -0.816506   -0.047106
H       1.106557    1.871901    0.053406
H      -0.395120    1.973563   -0.876271
H      -0.447665    1.955645    0.894276
H       0.306902   -0.086267   -2.162420
H       1.482739   -1.099028   -1.295677
H      -1.190672   -2.070342   -2.049234
H      -1.197106   -3.588091   -0.070501
H       0.553424   -3.282171   -0.015147
H      -1.309618   -2.110745    1.935430
H       1.403388   -1.125975    1.362511
H       0.177329   -0.130273    2.177910
H      -2.363896   -0.409712   -0.073102
