15

C      -0.112257    1.474830   -0.142269
C      -0.003906    0.004930    0.208155
N       0.076061   -0.510215    1.367001
N       0.002046   -0.804280   -0.925004
C       0.086243   -2.171643   -1.009762
N       0.181196   -3.026484   -0.016490
O       0.232882   -4.268845   -0.702041
C       0.162683   -3.991581   -1.995666
N       0.070732   -2.732617   -2.276293
H       0.728745    1.791694   -0.769289
H      -1.034730    1.678739   -0.697563
H      -0.114277    2.080666    0.764509
H       0.058480    0.217036    2.079122
H      -0.063506   -0.360677   -1.826571
H       0.187888   -4.822947   -2.685347
