14

O       0.108420    0.065729    0.367559
C       0.076837    1.219688    0.011869
N       1.121486    1.898430   -0.587160
C       2.499760    1.791774   -0.146299
C       3.378134    2.363777   -1.268720
C       2.591538    3.720714   -1.154199
C       1.747156    3.096399   -0.035416
H      -0.837925    1.842237    0.055578
H       2.754412    1.069165    0.618422
H       4.423722    2.467992   -0.973039
H       3.319203    1.835058   -2.222159
H       3.224398    4.536401   -0.799056
H       2.033917    4.047487   -2.034370
H       1.323624    3.573191    0.841150
