20

C      -0.228895    1.660080   -0.129685
C      -0.112857    0.149614   -0.155110
C      -1.268216   -0.557319    0.546970
O      -1.232585   -0.321332    1.942381
C       0.539445   -0.648204   -1.219195
C       1.780421   -0.004071   -1.818204
O       1.535384    1.115999   -2.640653
C       2.300971    0.173580   -0.362025
N       1.130153   -0.587182    0.196139
H       0.574276    2.166215   -0.660752
H      -1.167030    1.953311   -0.612515
H      -0.268994    2.006988    0.907541
H      -2.227742   -0.170217    0.188605
H      -1.230106   -1.634087    0.324665
H      -0.360151   -0.620029    2.228005
H       0.087966   -1.556816   -1.607590
H       2.378515   -0.753896   -2.350946
H       2.364283    1.373803   -3.056471
H       3.226064   -0.368621   -0.154336
H       2.393775    1.199373    0.002941
