21

C      -0.266726    1.521917   -0.067496
C      -0.032661    0.016765   -0.039903
C       1.153654   -0.476280   -0.918953
C       2.049706   -0.582499    0.352126
C       2.937113   -1.806906    0.512264
O       2.782786    0.610442    0.585404
C       0.742849   -0.524693    1.218861
C       0.739881    0.222269    2.457018
C       0.712949    0.838525    3.489522
H       0.667816    2.064214    0.096486
H      -0.678010    1.824020   -1.037192
H      -0.973078    1.823909    0.711857
H      -0.974668   -0.510052   -0.215255
H       0.965916   -1.448836   -1.382662
H       1.512833    0.218424   -1.683394
H       3.743724   -1.799476   -0.231973
H       3.392591   -1.815850    1.507261
H       2.370472   -2.733205    0.376056
H       3.483992    0.654718   -0.074162
H       0.422211   -1.553667    1.415773
H       0.703283    1.387687    4.397975
