22

C       0.114616    1.608100    0.075438
C      -0.015284    0.084102   -0.002175
C       0.675690   -0.513085   -1.234439
O       2.050698   -0.127304   -1.283554
C       0.536558   -2.048518   -1.342620
C      -0.920796   -2.525051   -1.389297
C       1.317682   -2.534050   -2.589869
C       1.445475   -3.986707   -2.649712
N       1.537454   -5.138835   -2.675490
H       1.163694    1.913549    0.068832
H      -0.373129    2.086128   -0.781094
H      -0.353211    1.995110    0.985252
H       0.416157   -0.377206    0.899245
H      -1.074015   -0.193628   -0.008562
H       0.238350   -0.063230   -2.137311
H       2.460409   -0.398294   -0.453496
H       1.021616   -2.487333   -0.458761
H      -1.443113   -2.331880   -0.449744
H      -1.472006   -2.022015   -2.192856
H      -0.967103   -3.601757   -1.576129
H       0.813058   -2.190352   -3.501754
H       2.313914   -2.083769   -2.590235
