23

C      -0.200768    1.589803   -0.066467
C       0.034709    0.074460    0.008128
O       0.686986   -0.417171   -1.163898
C       2.057655   -0.063848   -1.280112
C       2.879184   -0.566370   -0.092637
C       2.267529   -0.062560    1.220028
C       0.772089   -0.415639    1.274006
C       0.107639    0.057064    2.563849
O       0.693944   -0.662525    3.641070
H       0.715133    2.172307    0.066063
H      -0.625189    1.840038   -1.042823
H      -0.910695    1.908472    0.703095
H      -0.947646   -0.412209   -0.022217
H       2.396020   -0.514593   -2.218086
H       2.174188    1.027597   -1.381012
H       2.881239   -1.663430   -0.101379
H       3.919802   -0.237675   -0.196529
H       2.772374   -0.496783    2.086957
H       2.398277    1.026225    1.295055
H       0.692418   -1.511038    1.267072
H       0.252830    1.141278    2.691733
H      -0.979117   -0.125467    2.513707
H       0.339837   -0.314213    4.464180
