23

C       0.055407    1.473647    0.017506
C       0.020616   -0.046323   -0.008041
C       0.636874   -0.684529   -1.281750
C       0.044956   -2.127184   -1.305090
C      -0.801634   -2.175165   -0.014335
C       0.157099   -2.171166    1.197482
C       0.694692   -0.703707    1.221968
O       2.106594   -0.581567    1.126496
C      -1.362824   -0.737738    0.038586
H       1.088407    1.836404    0.023324
H      -0.446229    1.897931   -0.859008
H      -0.440947    1.868544    0.911628
H       0.332598   -0.115427   -2.165767
H       1.726828   -0.673978   -1.239319
H      -0.585304   -2.282687   -2.186504
H       0.817387   -2.902008   -1.318656
H      -1.535904   -2.983234    0.004926
H      -0.370239   -2.415339    2.125324
H       0.980754   -2.883202    1.081857
H       0.344694   -0.188868    2.129941
H       2.494724   -0.976283    1.912735
H      -1.922172   -0.520007    0.955479
H      -1.990943   -0.482562   -0.821351
