18

C       0.040591    1.500296    0.095431
C       0.010043    0.011425   -0.012759
C       0.017527   -0.776414   -1.109137
C      -0.008496   -0.355574   -2.508073
O      -0.014854   -1.128683   -3.443286
C       0.045743   -2.215409   -0.710544
C       1.238466   -2.636670    0.074539
N       0.002057   -2.264264    0.771637
C      -0.034136   -0.861763    1.227103
H       0.948113    1.829034    0.617314
H       0.008647    2.000604   -0.873810
H      -0.806463    1.857257    0.694663
H      -0.033762    0.741539   -2.681271
H      -0.540718   -2.936521   -1.269660
H       1.496490   -3.688771    0.154995
H       2.083465   -1.950899    0.103689
H       0.794229   -0.650801    1.916849
H      -0.961244   -0.682138    1.790811
