19

O       0.178779    1.377906    0.028038
C       0.010032   -0.019969   -0.098199
C      -1.422280   -0.481622   -0.077449
C      -2.477744    0.336742   -0.085786
C      -3.839996   -0.319850   -0.023197
C      -3.933590   -1.420060   -1.108330
C      -3.201662   -2.229469   -0.014644
C      -1.684988   -1.978579   -0.022456
O      -3.801349   -1.370966    0.996305
H      -0.205307    1.637195    0.872574
H       0.474927   -0.291261   -1.055969
H       0.576311   -0.567635    0.676337
H      -2.375012    1.413718   -0.154263
H      -4.670520    0.371995    0.128092
H      -4.954804   -1.777841   -1.250085
H      -3.440502   -1.245018   -2.066235
H      -3.456238   -3.282845    0.130136
H      -1.217803   -2.488057   -0.877299
H      -1.232931   -2.411572    0.880115
