16

O       0.060542    1.422455   -0.017062
C       0.010069    0.003359    0.004447
C       0.629570   -0.569263    1.305762
C      -0.569215   -0.768820    2.195616
C      -1.719591   -0.741702    1.500250
C      -1.447585   -0.516807    0.018379
C      -3.024902   -0.931663    2.012150
C      -4.155998   -1.083347    2.400060
H      -0.418001    1.741436    0.757089
H       0.553727   -0.311082   -0.889238
H       1.141608   -1.525119    1.122976
H       1.379497    0.118095    1.711566
H      -0.502790   -0.946376    3.262381
H      -2.125757    0.204687   -0.446480
H      -1.550271   -1.460611   -0.532592
H      -5.146380   -1.222354    2.756543
