11

N      -0.004594    1.303978    0.009848
C      -0.030108    0.043997    0.003689
O       1.179049   -0.683417   -0.007122
N       1.216878   -2.058823   -0.015295
C       0.086894   -2.665419   -0.012974
C      -1.174886   -1.936275   -0.002511
N      -1.233096   -0.652226    0.005304
C      -2.397474   -2.698998   -0.000600
N      -3.340254   -3.368129    0.000341
H       0.955083    1.650719    0.006693
H       0.122459   -3.748584   -0.019323
