14

O      -0.299255    0.077762   -0.122962
C       0.034670    1.232654   -0.058737
C       1.436415    1.746845   -0.316929
C       1.447323    2.891688   -1.312484
C       1.151240    4.303510   -0.862950
C       2.548109    3.921151   -1.281999
H      -0.700971    2.029482    0.200048
H       1.835588    2.103602    0.644128
H       2.057958    0.908134   -0.646222
H       1.079500    2.623322   -2.299253
H       0.571072    4.942738   -1.518665
H       0.969666    4.473801    0.193348
H       3.304088    3.829621   -0.509058
H       2.923914    4.296620   -2.226992
