15

N      -0.024603    1.417216    0.143299
C       0.051218    0.019281    0.039781
N      -1.041483   -0.738971    0.031995
N      -0.610954   -2.039835    0.004716
C       0.747095   -2.116441   -0.013376
C       1.203216   -0.800038    0.011306
N       2.582795   -0.834338   -0.010142
C       2.972754   -2.157644   -0.024088
C       1.871415   -2.989742   -0.035833
H       0.473786    1.884516   -0.606496
H      -0.996151    1.706843    0.115330
H      -1.294977   -2.772119    0.036678
H       3.203062   -0.053391    0.101306
H       4.021008   -2.414292   -0.030023
H       1.895002   -4.067038   -0.062998
