17

O      -0.269727    1.412844    0.459752
C      -0.069340    0.048457    0.154759
C      -1.379698   -0.652528   -0.192711
O      -2.270891   -0.717409    0.907633
C      -3.288771    0.245983    0.708869
C      -3.370588    0.302843   -0.828821
O      -2.027463    0.107740   -1.214890
C      -4.296390   -0.779675   -1.370382
O      -3.922256   -1.785956   -1.907312
H      -0.674389    1.799895   -0.325143
H       0.636025   -0.090937   -0.679790
H       0.356721   -0.426140    1.043255
H      -1.204222   -1.679806   -0.537831
H      -4.204053   -0.104783    1.194189
H      -3.005262    1.223438    1.117245
H      -3.713632    1.278620   -1.193272
H      -5.379276   -0.566213   -1.205039
