20

C       0.053266    1.480864   -0.179376
C      -0.010690   -0.036344    0.064346
C       0.719100   -0.425027    1.360924
C      -1.427840   -0.524492    0.069312
C      -1.994645   -1.938988   -0.147414
C      -3.200705   -1.575730    0.751970
C      -2.662747   -0.208263    0.968719
N      -3.616845   -0.459542   -0.170403
C      -2.408815   -0.796749   -1.044283
H       1.091036    1.827188   -0.218789
H      -0.434616    1.751921   -1.120260
H      -0.448815    2.027124    0.627203
H       0.495945   -0.536993   -0.773839
H       0.241743    0.039765    2.231240
H       0.707657   -1.508562    1.512178
H       1.761981   -0.093083    1.337932
H      -1.470302   -2.859200   -0.363808
H      -3.920039   -2.164326    1.309034
H      -2.863548    0.533147    1.733750
H      -2.362342   -0.654058   -2.117257
