17

O       0.092685    1.402935   -0.214029
C       0.025524   -0.005384   -0.023336
C       0.562357   -0.455096    1.379858
N      -0.294045   -1.587946    1.808022
C      -1.515594   -1.401519    1.130356
C      -2.802545   -1.877823    1.151882
N      -3.444668   -1.274839    0.074468
C      -2.589231   -0.445884   -0.606405
C      -1.380749   -0.506305    0.042806
H       1.007140    1.629040   -0.412080
H       0.591870   -0.509055   -0.823157
H       1.614521   -0.756142    1.356772
H       0.459721    0.416682    2.042374
H      -0.370505   -1.670050    2.814019
H      -3.325121   -2.559063    1.801671
H      -4.418360   -1.391540   -0.141350
H      -2.921977    0.116726   -1.463297
