13

C       0.127493    1.497372    0.078739
C      -0.024979    0.024540    0.052504
C      -1.096637   -0.819290   -0.033762
N      -0.637618   -2.144002   -0.014667
C       0.640671   -2.028652    0.078815
O       1.097325   -0.750968    0.125273
C      -2.463588   -0.472255   -0.128685
C      -3.623031   -0.158638   -0.208898
H       0.737484    1.851339   -0.759722
H      -0.858566    1.961147    0.011964
H       0.609552    1.833167    1.003533
H       1.383676   -2.809287    0.124263
H      -4.648530    0.107535   -0.279963
