18

O       0.062701   -0.072111    0.002231
C      -0.019448    1.126402    0.009490
C      -1.160738    2.172030    0.031622
C      -0.029337    3.232021    0.020399
N       0.925027    2.126677    0.001088
C       0.058790    4.461293   -0.923148
C      -0.949827    5.150386    0.043271
C       0.086364    4.451914    0.973094
C       1.188255    4.995105    0.011415
H      -1.801586    2.151258   -0.852082
H      -1.775398    2.142175    0.933484
H       1.933240    2.083288   -0.014032
H       0.041959    4.461283   -2.014088
H      -0.929316    6.242098    0.048371
H      -1.972830    4.768150    0.056256
H       0.101261    4.441112    2.064008
H       2.147648    4.472053   -0.005117
H       1.336125    6.077973    0.014620
