22

C      -0.040389    1.593978    0.017544
C      -0.007645    0.059904   -0.002359
C       0.582191   -0.443514   -1.330060
C       0.566936   -1.968097   -1.513420
N       1.581002   -2.682512   -0.753656
C       1.709652   -2.766862    0.605330
O       2.611372   -3.407888    1.116128
C       0.680363   -2.006967    1.433164
C       0.714957   -0.476428    1.245675
H       0.973840    2.008563   -0.023202
H      -0.595625    1.991842   -0.838357
H      -0.515053    1.969843    0.929769
H      -1.047565   -0.299379    0.046312
H       0.005172   -0.000590   -2.151895
H       1.614505   -0.086476   -1.441692
H      -0.435120   -2.357048   -1.281059
H       0.748136   -2.204142   -2.565532
H       2.291506   -3.189361   -1.259293
H      -0.327864   -2.383098    1.212764
H       0.903632   -2.262124    2.470374
H       1.758655   -0.134588    1.245435
H       0.247736   -0.019641    2.125850
