25

C      -0.048577    1.555642    0.017259
C      -0.044071    0.018866   -0.005680
C      -1.498642   -0.484934    0.057981
C       0.652817   -0.468131   -1.295259
C       0.670092   -1.998598   -1.438720
C       1.116836   -2.718972   -0.177873
C       2.425574   -2.398397    0.493969
C       1.127650   -1.984556    1.150242
C       0.750352   -0.503464    1.217192
H       0.966621    1.957560   -0.076121
H      -0.645680    1.961267   -0.807401
H      -0.472877    1.935950    0.953638
H      -2.052420   -0.213704   -0.848157
H      -1.551471   -1.571166    0.172054
H      -2.020874   -0.038691    0.911625
H       0.157040   -0.030571   -2.170534
H       1.679723   -0.078342   -1.303871
H      -0.339563   -2.341273   -1.695164
H       1.308575   -2.283743   -2.284452
H       0.820126   -3.763715   -0.138349
H       2.994221   -3.213691    0.928366
H       3.040700   -1.608973    0.071006
H       0.834970   -2.570020    2.016263
H       1.659684    0.101631    1.325665
H       0.160424   -0.321538    2.123013
