21

C       0.019258    1.577834   -0.032882
C       0.088628    0.052615   -0.025084
C       0.835776   -0.575966   -1.230493
C       1.260086   -1.959630   -0.744570
C       2.528982   -2.046040    0.082464
C       1.209283   -1.961932    0.774291
O       0.826364   -3.075567    1.524070
C       0.753745   -0.570360    1.234564
O       1.878837    0.168232    1.702222
H       1.023310    2.013862   -0.007421
H      -0.476260    1.944568   -0.937435
H      -0.544570    1.963228    0.825564
H      -0.935428   -0.346505   -0.043004
H       0.191708   -0.628318   -2.113342
H       1.703681    0.034829   -1.507723
H       0.961460   -2.842330   -1.299183
H       3.011120   -3.016199    0.130125
H       3.193357   -1.190892    0.125717
H      -0.125587   -3.189589    1.428333
H       0.023662   -0.687462    2.048642
H       1.561510    1.017798    2.024059
