16

C       0.044354   -1.134759   -0.064456
C       0.016775    0.068210   -0.016194
C      -0.037981    1.485715    0.056297
C      -1.135577    2.355635    0.682941
C      -0.486288    3.544402   -0.071224
C       0.900326    3.709049    0.612617
C       1.246158    2.358135   -0.005921
C       0.183972    2.503782   -1.058956
H       0.071618   -2.194895   -0.108407
H      -2.113323    2.091617    0.272546
H      -1.194238    2.417961    1.775446
H      -1.076842    4.410975   -0.357820
H       1.486738    4.508721    0.151350
H       0.916766    3.818538    1.702803
H       2.210070    1.875193   -0.096608
H       0.192330    2.373343   -2.131014
