19

C      -0.216299    1.498076   -0.082911
N       0.013032    0.061152    0.017361
C       1.324497   -0.544772   -0.249515
C       2.568527    0.250501   -0.383324
C       3.192217    0.849392    0.639623
C       2.701230    0.761460    2.031937
N       1.469125    1.514654    2.384990
C       1.407855    0.049808    2.271685
C       0.686172   -0.599940    1.118493
H       0.657039    2.124602    0.112537
H      -0.591588    1.698734   -1.092899
H      -0.995135    1.778094    0.631445
H       1.268191   -1.412794   -0.905285
H       2.995619    0.319629   -1.380721
H       4.116273    1.394494    0.466952
H       3.466563    0.704225    2.802519
H       1.506116    1.772655    3.368178
H       1.328693   -0.514497    3.197770
H       0.202779   -1.532022    1.409015
