20

C      -0.175545    1.532539    0.135849
C       0.010441    0.010906   -0.002562
C       0.689156   -0.374974   -1.341684
C       2.026981    0.272274   -1.599001
C       3.063066    0.207154   -0.764562
C       3.036550   -0.539309    0.543977
O       2.003103   -0.146583    1.465817
C       0.708736   -0.546916    1.221545
N       0.073312   -1.256086    2.056600
H       0.787184    2.045569    0.193162
H      -0.724904    1.926936   -0.725532
H      -0.744180    1.768767    1.039469
H      -0.974670   -0.463056    0.005249
H       0.795324   -1.468838   -1.375993
H      -0.002593   -0.114400   -2.148868
H       2.135169    0.832464   -2.524371
H       3.996201    0.700752   -1.021949
H       2.954438   -1.623234    0.370141
H       3.963764   -0.368992    1.095112
H       0.692236   -1.502190    2.833526
