18

N      -0.023296   -1.183723    0.016499
C      -0.029533   -0.028389    0.015342
C      -0.017025    1.432560    0.016453
C       1.411415    2.009772    0.004137
C       1.401852    3.537763    0.028410
N       2.763691    4.056446   -0.022448
C       2.812696    5.513607   -0.003731
C       4.196700    5.994667   -0.008914
N       5.286630    6.375626    0.011090
H      -0.576879    1.784629   -0.858017
H      -0.563485    1.782230    0.900393
H       1.959208    1.626780    0.873103
H       1.946168    1.664608   -0.885275
H       0.865510    3.916649   -0.852229
H       0.838365    3.893873    0.912708
H       3.305184    3.690768    0.754810
H       2.311294    5.894946   -0.902220
H       2.296621    5.972795    0.859775
