17

C      -0.017008    1.472828    0.362183
C       0.024236   -0.007072    0.064789
C      -1.218175   -0.726932   -0.302709
N      -0.160041   -0.513272   -1.306779
N       1.287540    2.089224    0.152556
C       1.561228    2.619931   -1.177322
C       1.307561    3.534548   -0.029086
H      -0.810228    1.947888   -0.248645
H      -0.288107    1.626007    1.414838
H       0.790514   -0.544939    0.618206
H      -1.361640   -1.759758    0.001200
H      -2.136833   -0.149812   -0.381991
H      -0.428299    0.251887   -1.921760
H       2.567347    2.463310   -1.554540
H       0.777783    2.548081   -1.931020
H       0.356293    4.065790   -0.020288
H       2.126186    4.061478    0.452794
