23

C      -0.048366    1.603953    0.045988
C      -0.043063    0.091088    0.090186
C       1.215819   -0.684477   -0.217449
C       0.667956   -0.672242    1.185950
C       1.391544    0.062998    2.325867
O       1.378671   -0.817105    3.442605
C       0.205860   -1.603008    3.325614
C       0.097358   -1.950030    1.832907
C      -1.301140   -2.380597    1.398366
H       0.909895    2.022547    0.369943
H      -0.232453    1.960596   -0.973333
H      -0.828025    2.025657    0.690568
H      -0.963399   -0.358971   -0.272797
H       1.131879   -1.603002   -0.791485
H       2.123644   -0.120302   -0.414364
H       2.436618    0.298997    2.102173
H       0.875781    1.003482    2.579382
H       0.316586   -2.475005    3.975922
H      -0.685041   -1.036522    3.652094
H       0.797896   -2.771153    1.632777
H      -2.039397   -1.595908    1.594512
H      -1.339591   -2.619064    0.330225
H      -1.613717   -3.278985    1.941448
