14

O      -0.565668    1.288024    1.402923
C      -0.260591    1.833174    0.367359
C       1.130368    1.753315   -0.184349
C       2.231806    2.034833    0.821938
N       1.994430    0.689055    0.364068
C       1.316282    2.158505   -1.617370
O       0.456867    2.774408   -2.214602
C       2.576595    1.802283   -2.239215
C       3.618012    1.538822   -2.781199
H      -0.981213    2.409423   -0.237119
H       3.143659    2.500334    0.459261
H       1.897217    2.329901    1.812840
H       1.425453    0.196954    1.056158
H       4.535365    1.298171   -3.261908
