19

C      -0.111222    1.601197    0.024380
C       0.001171    0.059231    0.013874
C       0.817321   -0.461793   -1.173187
C       1.800972   -1.280107   -0.798462
C       1.885627   -1.408837    0.684526
C       2.231283   -0.118582    1.404830
C       0.788236   -0.509096    1.218224
C      -1.347471   -0.519096   -0.022623
C      -2.455485   -0.985850   -0.052326
H       0.881418    2.057598    0.052131
H      -0.631139    1.954784   -0.870658
H      -0.676465    1.937470    0.897998
H       0.583060   -0.160548   -2.187456
H       2.496034   -1.768876   -1.472055
H       2.138773   -2.358769    1.141530
H       2.621662   -0.192519    2.414878
H       2.654773    0.686971    0.814807
H       0.217522   -0.784656    2.096012
H      -3.431036   -1.403873   -0.082209
