19

C       0.009488    1.524730   -0.047778
C      -0.005792    0.019117    0.050054
C      -1.356643   -0.684266   -0.124956
C      -1.114388   -2.044491    0.513419
C       0.273741   -2.656786    0.406045
C      -0.176405   -1.928983    1.679072
C       0.695266   -0.722809    1.258839
C       1.307932   -1.544261    0.113899
O       0.927513   -0.600594   -0.899603
H       1.025598    1.908687    0.078558
H      -0.357220    1.851496   -1.026692
H      -0.631639    1.965674    0.722905
H      -2.158782   -0.156565    0.406324
H      -1.615276   -0.733349   -1.186844
H      -1.928767   -2.758705    0.575158
H       0.404411   -3.717948    0.231330
H      -0.348288   -2.306849    2.677734
H       1.279641   -0.146047    1.971424
H       2.353524   -1.852941    0.056750
