17

O       0.138567    1.345215   -0.237330
C       0.036166   -0.047985   -0.022449
C       0.820766   -0.501422    1.232942
C       0.034083   -0.369151    2.524834
O       0.418219    0.263493    3.477432
C      -1.283002   -1.143419    2.539740
C      -2.069840   -0.942668    1.265696
O      -2.229255    0.420708    0.851528
C      -1.435603   -0.450672    0.029556
H      -0.501527    1.763209    0.353609
H       0.498512   -0.515797   -0.897785
H       1.071561   -1.565086    1.113717
H       1.747525    0.069869    1.307886
H      -1.054131   -2.212265    2.654536
H      -1.867169   -0.834556    3.410940
H      -2.978528   -1.537736    1.171355
H      -1.899473   -0.688174   -0.926909
