14

C       0.142510    1.534542    0.026458
C       0.042084    0.036843    0.116741
O       1.201596   -0.727876   -0.150289
C       0.691782   -0.799422    1.187020
C       1.525803   -0.130176    2.256839
O       2.372058    0.694955    2.039209
C       0.081501   -2.042110    1.588495
C      -0.411087   -3.069565    1.971088
H       1.067655    1.895547    0.475459
H       0.125238    1.831088   -1.027667
H      -0.715260    2.002776    0.519860
H      -0.874357   -0.401994   -0.283015
H       1.276112   -0.467776    3.284547
H      -0.848807   -3.982454    2.293330
