19

C      -0.020193    1.467112    0.023130
C       0.048103   -0.041212    0.000229
C       0.617525   -0.700849   -1.286515
C       0.197839   -2.161189   -1.055262
O       1.059036   -2.778662   -0.069783
C       0.263792   -2.189028    0.985694
C       0.698840   -0.735171    1.229073
C      -0.933266   -1.969459    0.005634
O      -1.284166   -0.609809    0.035529
H       0.986621    1.894454   -0.001524
H      -0.574665    1.841306   -0.842631
H      -0.520739    1.816541    0.931071
H       0.122235   -0.274710   -2.164926
H       1.700037   -0.607249   -1.397504
H       0.070861   -2.778208   -1.946010
H       0.194025   -2.830208    1.865631
H       1.786345   -0.643687    1.272376
H       0.261734   -0.333557    2.148942
H      -1.802344   -2.621527    0.024822
