17

C       0.070958    1.477686    0.031150
C      -0.013057   -0.011411   -0.033823
C      -0.138723   -0.792085   -1.110497
C      -0.081799   -2.238368   -0.757410
N       1.222677   -2.613693   -0.140186
C       0.069960   -2.305688    0.718808
C       0.056730   -0.864935    1.245334
C       1.203089   -0.541618    2.097410
N       2.091814   -0.267177    2.783297
H       1.025373    1.797963    0.465378
H      -0.020561    1.922420   -0.962668
H      -0.719080    1.893519    0.669557
H      -0.226963   -0.429876   -2.127900
H      -0.630818   -2.984440   -1.321074
H       1.334105   -3.625765   -0.173392
H      -0.372225   -3.087761    1.324622
H      -0.847579   -0.697867    1.848519
