25

C      -0.021926    1.603575   -0.057992
C       0.046620    0.075577    0.012386
C       0.747086   -0.543324   -1.195101
O       2.106943   -0.112038   -1.163146
C       2.817279   -0.448815   -2.342951
C       2.859766   -1.961514   -2.567813
C       1.435205   -2.535262   -2.540040
C       0.665991   -2.083555   -1.279792
C       1.172247   -2.779888   -0.007272
H       0.982135    2.026908   -0.141662
H      -0.599820    1.934098   -0.928651
H      -0.497867    2.019937    0.835045
H       0.577006   -0.228224    0.921467
H      -0.964263   -0.346154    0.078227
H       0.277087   -0.139390   -2.112286
H       2.349205    0.044055   -3.213753
H       3.822398   -0.032301   -2.224659
H       3.346741   -2.178747   -3.525661
H       3.473019   -2.423121   -1.785607
H       0.894496   -2.183360   -3.429168
H       1.457975   -3.629235   -2.599936
H      -0.391742   -2.345487   -1.417205
H       2.168430   -2.425142    0.271081
H       0.507072   -2.597262    0.841419
H       1.225938   -3.863560   -0.155410
