15

O      -0.043237    0.693730    0.960316
C       0.098392    1.356820   -0.042161
N       1.289450    1.563971   -0.678048
C       2.533594    1.014306   -0.186501
C       3.577598    2.093607    0.034058
C       5.001685    1.840041   -0.258769
O       4.197256    2.595696   -1.160072
C       3.242817    3.116142    1.011657
N       2.967700    3.917177    1.797299
H      -0.735687    1.868201   -0.558542
H       1.305104    2.120629   -1.518403
H       2.300660    0.500781    0.749882
H       2.951236    0.285857   -0.891362
H       5.762322    2.402313    0.277394
H       5.292244    0.848629   -0.601849
