18

C       0.028314    1.550782    0.053376
C       0.047823    0.046623    0.065995
C      -1.260377   -0.784648    0.250478
C      -0.374029   -1.867279    0.854153
C       0.714505   -0.886716    1.171894
C       0.939328   -1.867414    0.027443
C       0.821441   -0.757369   -1.018542
C       1.803344   -2.998070    0.007003
N       2.511618   -3.913852   -0.022526
H       1.042320    1.963239    0.022817
H      -0.509321    1.921512   -0.827329
H      -0.472076    1.950715    0.941624
H      -1.907107   -0.344362    1.014873
H      -1.846564   -1.011853   -0.646630
H      -0.654769   -2.752045    1.409864
H       1.308333   -0.708980    2.056639
H       0.300137   -0.977609   -1.956210
H       1.799716   -0.317783   -1.229282
