20

C       0.035276    1.495366   -0.124125
C      -0.050306   -0.015080    0.000295
C       1.047925   -0.805974   -0.679129
C       1.012976   -0.700515    0.827170
C      -1.440113   -0.620332    0.043212
O      -1.458462   -2.029290    0.047411
C      -2.520909   -0.031438    0.902023
C      -2.628708    0.045202   -0.610019
H       1.079575    1.818595   -0.085377
H      -0.381085    1.850530   -1.072878
H      -0.491543    2.005951    0.689360
H       0.815551   -1.772410   -1.111307
H       1.803208   -0.249089   -1.223631
H       1.753719   -0.081301    1.321880
H       0.721037   -1.590252    1.372088
H      -1.317668   -2.325597   -0.858114
H      -3.159608   -0.741607    1.413596
H      -2.320506    0.881027    1.451122
H      -2.507684    1.010852   -1.086362
H      -3.347761   -0.610034   -1.089572
