18

C       0.103779    1.495023   -0.088981
C      -0.075079    0.022755    0.014952
C      -1.152586   -0.800024    0.064066
C      -2.654424   -0.842057    0.083255
C      -2.916318   -2.350464   -0.212997
N      -1.704143   -3.055969    0.274643
C      -0.654372   -2.135192    0.165211
C       0.698948   -2.062964    0.168333
O       1.064338   -0.731304    0.071867
H       0.703759    1.765584   -0.965298
H      -0.869589    1.983492   -0.175910
H       0.612245    1.903188    0.792394
H      -3.050034   -0.571546    1.070176
H      -3.145065   -0.199685   -0.653002
H      -3.809193   -2.729898    0.291657
H      -3.051379   -2.490595   -1.296114
H      -1.552391   -3.957991   -0.155870
H       1.509509   -2.768700    0.210118
