14

C      -0.007591    1.509380    0.009299
C       0.046815   -0.008257    0.003172
O       1.104230   -0.609543   -0.008566
C      -1.238589   -0.726530    0.011429
C      -1.382474   -2.107337    0.007337
N      -2.704134   -2.350681    0.017829
N      -3.461582   -1.228064    0.028690
C      -2.573950   -0.243734    0.024627
H       1.007526    1.906990    0.001799
H      -0.553686    1.878345   -0.866034
H      -0.538073    1.871736    0.896908
H      -0.639681   -2.888239   -0.002037
H      -3.166282   -3.244991    0.018437
H      -2.917245    0.780387    0.031448
