16

N       0.035121    1.439027   -0.028342
C      -0.032762    0.022901   -0.012013
C      -1.210854   -0.709911   -0.057075
C      -1.179977   -2.102618   -0.083960
C       0.070101   -2.709911   -0.043973
O       0.152748   -4.063077   -0.048560
N       1.218228   -2.037422   -0.012353
C       1.174810   -0.704977   -0.007399
N       2.378639   -0.014400    0.055483
H       0.581918    1.796824    0.749653
H      -0.884043    1.863045    0.003405
H      -2.164824   -0.189335   -0.067226
H      -2.080975   -2.699954   -0.122981
H       1.096811   -4.267563   -0.023863
H       3.172143   -0.598458   -0.169668
H       2.368702    0.858149   -0.457929
