18

O       0.231546    1.276011   -0.043138
C      -0.030220   -0.100720    0.087836
C      -0.546165   -0.609342    1.454043
O      -1.786275   -1.053726    0.861734
C      -1.430125   -0.501364   -0.429709
C      -2.343772    0.639434   -0.849013
O      -3.626590    0.149797   -1.228542
C      -4.520875   -0.056040   -0.236462
N      -5.647634   -0.555483   -0.507353
H       1.132460    1.450798    0.244595
H       0.780495   -0.706427   -0.333009
H       0.003586   -1.436192    1.917973
H      -0.695230    0.193980    2.186692
H      -1.445948   -1.278747   -1.202353
H      -2.427526    1.378945   -0.045040
H      -1.934122    1.139428   -1.730187
H      -4.157456    0.252884    0.750403
H      -6.203905   -0.625328    0.342228
