20

O      -0.065471    1.379280    0.489564
C       0.024574    0.007786    0.115005
C      -1.364806   -0.518706   -0.101069
C      -2.153786   -1.028142    1.082830
C      -1.690330   -1.995201    0.019532
C      -2.675489   -2.360647   -1.082589
C      -3.281550   -1.009962   -1.531047
C      -2.175793    0.037777   -1.267713
H       0.826484    1.737315    0.526054
H       0.610703   -0.103255   -0.812918
H       0.529859   -0.583823    0.895859
H      -1.636192   -1.056437    2.035947
H      -3.208989   -0.788537    1.165184
H      -0.920913   -2.713299    0.285311
H      -2.130902   -2.831392   -1.910406
H      -3.442466   -3.072220   -0.757440
H      -3.604361   -1.023514   -2.575440
H      -4.169968   -0.779000   -0.935033
H      -2.578480    1.035272   -1.069013
H      -1.516378    0.127130   -2.141303
