18

O       0.090816   -0.047780    0.056157
C       0.013978    1.161097    0.134048
C      -1.299558    1.953710    0.165094
C      -1.225509    3.367683    0.788235
C       0.004539    4.133414    0.340374
C       1.075068    3.400181    0.059423
C       2.540983    3.445495   -0.344417
C       2.508938    1.877041   -0.268186
N       1.097937    1.995064    0.121806
H      -1.606233    2.035849   -0.887044
H      -2.050621    1.336008    0.662220
H      -2.139319    3.913986    0.532549
H      -1.224349    3.283201    1.885596
H       0.013999    5.215224    0.313478
H       2.735553    3.848044   -1.340640
H       3.208348    3.929414    0.371520
H       2.655368    1.351770   -1.215622
H       3.142674    1.426524    0.499768
