16

O       0.028753    1.469627    0.079825
C       0.056759    0.057804   -0.029876
C       0.494324   -0.612136    1.322466
N      -0.747939   -0.669843    2.155924
C      -1.667022   -0.731228    1.278539
N      -3.023211   -0.458755    1.137945
C      -2.736737    0.124679   -0.225209
C      -1.345200   -0.587528   -0.177971
H      -0.304405    1.686625    0.958456
H       0.727759   -0.167785   -0.862658
H       0.918343   -1.612204    1.160054
H       1.253943   -0.006715    1.826123
H      -3.518926    0.063491    1.851849
H      -3.436879   -0.205509   -0.994438
H      -2.653190    1.215182   -0.219895
H      -1.315808   -1.512779   -0.756888
