23

C      -0.247076    1.348352   -0.275157
C       1.208404    1.148960    0.066850
C       0.274885   -0.036827    0.025879
C      -0.123266   -0.735901    1.296629
C      -1.372477   -1.674638    1.301498
C      -0.577563   -2.736041    2.118115
C      -0.007040   -3.901219    1.278828
C       1.195723   -3.000750    0.862141
C       0.731631   -1.902233    1.867637
H      -0.881957    1.821322    0.467350
H      -0.507317    1.592708   -1.299209
H       1.943390    1.257603   -0.723145
H       1.551275    1.488186    1.039170
H       0.382081   -0.687344   -0.838545
H      -0.239678    0.017927    2.085186
H      -2.262639   -1.265028    1.784762
H      -1.662712   -2.026908    0.305772
H      -0.963231   -2.958935    3.114080
H       0.306141   -4.749550    1.894093
H      -0.647880   -4.280784    0.476425
H       2.177575   -3.425591    1.082809
H       1.199534   -2.689975   -0.185832
H       1.448238   -1.654408    2.652791
