18

O       0.610567    0.502568   -0.415016
C      -0.250308    0.404672    0.710269
C      -1.599399   -0.180253    0.329717
C      -1.743826   -1.695588   -0.136894
C      -3.062455   -1.815379    0.510928
N      -2.079482   -2.819325    0.851396
C      -1.866013   -2.646835    2.317213
C      -2.051451   -1.147863    2.533219
C      -2.598000   -0.641926    1.408595
H       0.247178    1.165180   -1.011137
H       0.259698   -0.253525    1.420262
H      -0.384631    1.380037    1.204460
H      -2.042427    0.417833   -0.480431
H      -1.434285   -2.057157   -1.111131
H      -4.048448   -2.033812    0.117985
H      -2.560178   -3.331671    2.821384
H      -0.849085   -2.923361    2.619690
H      -1.361435   -0.597531    3.165698
