17

C      -0.006426    1.530563   -0.000976
C      -0.046964    0.007942    0.065634
N      -1.403724   -0.485202   -0.117849
C      -1.608361   -1.860458   -0.035270
C      -0.681029   -2.864584   -0.058481
O      -1.305902   -4.086150   -0.024609
C      -2.633980   -3.846380    0.035123
C      -2.889690   -2.513514    0.029655
H       1.019391    1.893674    0.106242
H      -0.404395    1.888322   -0.954984
H      -0.600990    1.977122    0.804720
H       0.572041   -0.413894   -0.736654
H       0.392663   -0.343365    1.015946
H      -2.083808    0.041294    0.414596
H       0.392770   -2.888617   -0.108454
H      -3.268943   -4.716478    0.074124
H      -3.858425   -2.038826    0.059201
