21

C      -0.314865    1.314473    0.204434
N      -0.054983   -0.096295   -0.018744
C       0.022755   -0.939736    1.169632
C      -1.301546   -1.092667    1.887401
C      -1.329187   -1.442395    3.326647
N      -1.755555   -0.102017    2.883464
C       0.091837   -0.687057   -1.254037
C       0.006575    0.211757   -2.481003
O       0.286576   -1.885697   -1.375171
H      -0.252479    1.875509   -0.725295
H      -1.308722    1.475848    0.638684
H       0.428082    1.731771    0.897992
H       0.380226   -1.913870    0.831718
H       0.765459   -0.517292    1.863998
H      -2.106641   -1.462071    1.255556
H      -2.121458   -2.071965    3.720206
H      -0.377372   -1.539364    3.843956
H      -1.006316    0.561536    3.070238
H       0.786738    0.979553   -2.480843
H       0.139768   -0.426831   -3.353311
H      -0.961317    0.717134   -2.553537
