19

C      -0.026840    1.523502    0.092648
C      -0.055476    0.020317    0.041311
C       1.170106   -0.817701   -0.291449
C       0.508246   -0.974849    1.052950
O       1.113635   -0.592294    2.249597
C      -0.733833   -1.827866    0.984994
C      -1.929523   -0.991821    1.320023
O      -1.919712   -0.009688    2.315849
C      -1.314715   -0.812880   -0.047243
H       0.935795    1.884562    0.468717
H      -0.179368    1.957181   -0.902391
H      -0.814917    1.896856    0.752448
H       1.127814   -1.612602   -1.031604
H       2.106744   -0.267623   -0.268056
H       1.720300   -1.286121    2.531118
H      -0.756140   -2.912157    0.947868
H      -2.878151   -1.525079    1.308529
H      -1.045454   -0.010414    2.723262
H      -1.852437   -1.056386   -0.957861
