15

N       0.065814    1.148684   -0.541881
C       0.058712   -0.021340    0.150999
O       0.988097   -0.434686    0.819888
C      -1.224125   -0.767357    0.007574
C      -1.761335   -1.676021    1.126829
C      -1.463524   -2.264916   -0.201173
N      -2.492131   -1.939764   -1.197740
C      -2.330702   -0.559315   -1.007324
O      -2.849856    0.400057   -1.513468
H       0.871676    1.747341   -0.467592
H      -0.762884    1.476625   -1.015402
H      -1.021726   -1.843953    1.904112
H      -2.788202   -1.559287    1.459583
H      -0.708063   -3.010646   -0.406428
H      -3.389114   -2.405364   -1.271564
