16

O      -0.038338    0.081183   -0.370377
C       0.017279    1.267718   -0.130048
N       1.143059    1.919588    0.265621
C       2.539782    1.467049    0.154364
C       2.972937    2.949512    0.060241
C       2.222922    3.634403   -1.071325
C       1.483394    3.329646    0.195278
C       4.114791    3.504096    0.696692
C       5.094907    3.951638    1.232370
H      -0.859157    1.947059   -0.168046
H       2.891127    0.976895    1.065451
H       2.742788    0.833787   -0.714006
H       2.495158    4.674558   -1.214550
H       1.993760    3.083790   -1.979734
H       1.017300    4.065700    0.838315
H       5.957250    4.350215    1.706732
