14

N      -0.107785   -1.196348   -0.203341
C      -0.052308   -0.046125   -0.109020
C      -0.000142    1.415319    0.027794
C      -0.635789    1.915784    1.321263
C       0.230048    2.676754    1.985989
C       1.535428    2.732668    1.271961
C       2.238414    1.426304    1.126915
N       1.397245    1.928028    0.030142
H      -0.511460    1.838271   -0.848096
H      -1.639384    1.643933    1.621151
H       0.041862    3.186412    2.922540
H       2.079083    3.669871    1.195496
H       3.296480    1.398851    0.884112
H       1.877315    0.595389    1.727258
