15

C      -0.309222    1.345928   -0.733380
O      -0.224411   -0.047153   -1.077666
C       0.902051   -0.668491   -0.694929
O       1.801617   -0.156379   -0.089193
C       0.866649   -2.146259   -1.124977
C      -0.446656   -2.795000   -0.632158
O      -0.494456   -3.528465    0.314039
C       0.966747   -2.275035   -2.571708
C       1.011674   -2.406603   -3.764936
H      -0.233135    1.476576    0.348379
H       0.494099    1.905671   -1.217709
H      -1.281267    1.679094   -1.095048
H       1.698786   -2.639736   -0.617745
H      -1.337767   -2.518578   -1.228621
H       1.069554   -2.519127   -4.819643
