21

C      -0.021852    1.584545    0.010757
C       0.024335    0.054961    0.002018
C      -1.369445   -0.571899    0.012095
C      -1.357062   -2.083271    0.003866
O      -0.350910   -2.755606   -0.009257
C      -2.742881   -2.781603    0.013427
O      -3.750025   -2.111238    0.026518
C      -2.730344   -4.293834    0.005079
C      -4.126611   -4.909204    0.015137
H       0.986275    2.009794    0.003281
H      -0.553351    1.972480   -0.865402
H      -0.536211    1.962904    0.901218
H       0.571118   -0.301555   -0.877924
H       0.587995   -0.311025    0.867300
H      -1.954377   -0.248765    0.884256
H      -1.971077   -0.239475   -0.845081
H      -2.145325   -4.614181   -0.866840
H      -2.128700   -4.623600    0.862040
H      -4.064780   -6.000616    0.008600
H      -4.685513   -4.600013    0.902384
H      -4.702418   -4.590425   -0.857790
