17

N       0.060906    1.390820   -0.258155
C      -0.078794    0.018716   -0.112987
C      -1.150853   -0.822255   -0.093122
C      -0.604489   -2.156679   -0.027314
C       0.744482   -2.010264   -0.000117
O       1.080805   -0.676258   -0.059003
C      -1.374979   -3.419874    0.026396
C      -1.765800   -4.129558   -1.223861
N      -0.754652   -4.709136   -0.322133
H       0.891609    1.748290    0.196438
H      -0.759029    1.901708    0.037668
H      -2.192196   -0.545891   -0.134978
H       1.572380   -2.691647    0.092084
H      -2.060870   -3.498201    0.868642
H      -2.706029   -4.672131   -1.268452
H      -1.435633   -3.700554   -2.165723
H       0.167935   -4.541532   -0.716698
