23

C      -0.370258    1.470383   -0.579835
C      -0.029804    0.196284    0.204335
C      -1.261282   -0.635258    0.475292
O      -1.833265   -1.349337   -0.631065
C      -1.342418   -2.110361    0.492298
C      -0.133483   -2.980140    0.213251
C      -2.443796   -2.756231    1.319259
C      -3.193425   -3.859737    0.576357
O      -4.233946   -4.310705    1.432459
H       0.526040    2.068504   -0.768476
H      -0.822158    1.217098   -1.543401
H      -1.081602    2.096528   -0.030321
H       0.708861   -0.388335   -0.350367
H       0.427956    0.460250    1.166853
H      -2.009860   -0.112437    1.078089
H       0.589333   -2.473901   -0.427187
H       0.362695   -3.258248    1.149457
H      -0.430454   -3.904757   -0.291714
H      -2.022666   -3.168805    2.244054
H      -3.176980   -1.997244    1.609245
H      -3.591116   -3.450056   -0.363697
H      -2.513644   -4.686633    0.318058
H      -4.745562   -4.972265    0.958078
