18

C      -0.051909    1.578307    0.011619
C       1.468756    1.800997    0.034780
C       1.939200    0.997325    1.263085
C       2.497298   -0.097038    0.392946
C       1.128720   -0.270326    1.035325
C       0.041088    0.032823   -0.043534
C       0.830317   -0.151635   -1.363876
C       2.062938    0.635875   -0.891622
H      -0.531597    1.952026    0.921981
H      -0.560222    2.002451   -0.860936
H       1.855325    2.807927   -0.111139
H       2.258340    1.363652    2.231259
H       3.341099   -0.759501    0.543114
H       0.978863   -0.982909    1.835417
H      -0.890047   -0.523822    0.059333
H       1.074082   -1.196510   -1.581451
H       0.316393    0.283507   -2.227685
H       2.823453    0.909542   -1.620565
