20

C      -0.159522    1.544582    0.155269
C      -0.007065    0.035172    0.003555
C       0.803051   -0.580191    1.148551
O      -1.328178   -0.495460   -0.060414
C      -1.430694   -1.808419   -0.559319
C      -2.923338   -2.103872   -0.754338
C      -3.159350   -3.449049   -1.260046
C      -3.323691   -4.563820   -1.678124
H       0.819278    2.032923    0.170416
H      -0.743184    1.954418   -0.673092
H      -0.678642    1.780905    1.089619
H       0.504375   -0.180701   -0.950285
H       0.305433   -0.394165    2.105956
H       0.923730   -1.660439    1.028134
H       1.803738   -0.138164    1.187514
H      -0.900588   -1.906641   -1.520145
H      -0.998958   -2.547708    0.131159
H      -3.434076   -1.962890    0.205633
H      -3.341101   -1.358267   -1.440950
H      -3.483917   -5.546245   -2.047233
