14

C      -0.000139    1.380412    0.147910
N       0.161434   -0.050335   -0.013170
C       0.638171   -0.600673   -1.152527
O       0.983944   -0.019624   -2.156460
O       0.681413   -1.965057   -1.017758
C       1.174050   -2.629542   -2.177809
C       1.169168   -4.067056   -1.907345
N       1.179196   -5.207466   -1.728864
H       0.611876    1.759095    0.973571
H       0.323239    1.855088   -0.778847
H      -1.046631    1.643598    0.335703
H      -0.083161   -0.676174    0.736090
H       0.547049   -2.410356   -3.048331
H       2.189813   -2.296934   -2.415689
