17

N       0.335526    1.329535    0.006877
C      -0.021471   -0.072819    0.040962
C      -1.532359   -0.357992   -0.023471
O      -2.362658    0.508438   -0.096049
N      -1.829784   -1.731599    0.011910
C      -3.078387   -2.338115   -0.027547
O      -4.133997   -1.755378   -0.100716
C      -3.041141   -3.869074    0.029945
O      -4.334984   -4.381738   -0.015202
H      -0.050898    1.748550   -0.834735
H      -0.133389    1.808506    0.771031
H       0.464834   -0.595466   -0.794280
H       0.377815   -0.530819    0.956453
H      -1.037902   -2.356808    0.073684
H      -2.434189   -4.238449   -0.813848
H      -2.521316   -4.174157    0.953809
H      -4.912625   -3.602039   -0.071808
