16

O      -0.077733    1.452859    0.126227
C       0.028466    0.056601    0.013599
C      -1.351324   -0.630025   -0.159080
C      -1.211030   -2.150700   -0.342831
O      -2.452842   -2.729492   -0.723369
C      -3.108946   -3.498727    0.181482
O      -4.152143   -4.016406   -0.063287
C      -2.197631   -0.317197    0.994428
N      -2.817245   -0.057265    1.935247
H      -0.507358    1.660893    0.964039
H       0.623013   -0.138725   -0.884153
H       0.553859   -0.391522    0.870406
H      -1.829446   -0.215137   -1.053199
H      -0.502582   -2.350587   -1.151767
H      -0.829973   -2.616577    0.574365
H      -2.564405   -3.587710    1.140674
