21

C      -0.156147    1.325983   -0.186141
O       0.022556   -0.067477   -0.117964
C       0.706401   -0.587508   -1.242259
C       0.846534   -2.087761   -1.022657
C      -0.516187   -2.841282   -1.047909
C      -0.218623   -3.333720   -2.490596
C       1.276598   -2.933072   -2.260082
C       2.018389   -2.354997   -3.429134
O       2.554742   -1.275309   -3.473525
H       0.805663    1.860485   -0.237268
H      -0.754778    1.620493   -1.063352
H      -0.683972    1.634670    0.719853
H       0.139333   -0.372299   -2.164683
H       1.690619   -0.114417   -1.357454
H       1.449651   -2.248609   -0.125775
H      -0.546167   -3.666220   -0.331970
H      -1.402373   -2.221295   -0.904525
H      -0.421836   -4.380722   -2.723365
H      -0.696463   -2.710362   -3.251599
H       1.838124   -3.821797   -1.942247
H       2.035216   -3.032356   -4.317085
