17

C       0.014932    1.452331   -0.151327
N       0.054907    0.002828   -0.165369
C      -1.020048   -0.602299    0.050028
O      -1.004143   -1.980766    0.038265
C      -2.172841   -2.636757    0.294126
O      -3.226697   -2.097013    0.523326
C      -1.966478   -4.107171    0.245483
C      -2.606210   -4.895985    1.347930
N      -3.155573   -4.937147    0.001043
H       0.361995    1.829804   -1.119062
H      -0.981142    1.872920    0.054216
H       0.714935    1.822730    0.605136
H      -2.004603   -0.176312    0.252623
H      -1.039225   -4.445434   -0.201327
H      -2.114284   -5.804425    1.681889
H      -3.134628   -4.333979    2.112374
H      -3.960433   -4.312736   -0.047506
