17

C      -0.024084    1.459140    0.087740
O       0.279117    0.081770   -0.096806
C       0.681282   -0.577574    1.075604
C      -0.438154   -0.976807    2.063327
O      -1.382244   -0.305131    2.383707
C      -0.105614   -2.411700    2.487971
N       0.876504   -2.909349    1.527322
C       1.255850   -1.945103    0.771505
N       2.174130   -2.052831   -0.234089
H       0.849081    2.003521    0.478830
H      -0.280455    1.857012   -0.896381
H      -0.866907    1.593828    0.771719
H       1.428453    0.023939    1.627044
H       0.288966   -2.412871    3.514853
H      -1.007808   -3.034392    2.502894
H       2.364449   -2.993849   -0.547112
H       2.078597   -1.366036   -0.967424
