21

C      -0.262875    1.543287   -0.198780
C      -0.042272    0.029045   -0.035402
C       0.892877   -0.503380   -1.116450
C       2.111988   -0.825270   -0.648036
C       2.146921   -0.601041    0.787177
C       3.030753   -0.380811    1.764770
C       2.310285    0.047007    3.032098
C       0.897779    0.461482    2.517442
C       0.716327   -0.402436    1.255660
H       0.683155    2.089904   -0.132095
H      -0.706053    1.765136   -1.175261
H      -0.938514    1.930729    0.570574
H      -1.022469   -0.459441   -0.093181
H       0.603845   -0.526855   -2.162615
H       2.954300   -1.144738   -1.250200
H       4.108740   -0.469233    1.695146
H       2.240365   -0.783027    3.752211
H       2.820289    0.862742    3.557121
H       0.114221    0.318310    3.267058
H       0.914248    1.523652    2.251939
H       0.317664   -1.385697    1.547995
