19

C       0.007200    1.606165   -0.007520
C       0.005082    0.074594   -0.019775
C       0.973036   -0.502067   -1.125892
C       2.304752   -0.710464   -0.403731
C       2.072248   -0.740368    0.902124
C       2.500880   -0.327264    2.291460
O       2.082846    1.055078    2.372487
C       1.096566    0.048157    2.604486
C       0.612027   -0.561460    1.251563
H       1.011573    1.996752    0.173427
H      -0.354693    2.000047   -0.963232
H      -0.645063    1.991935    0.782805
H      -1.016575   -0.278419   -0.195181
H       0.583041   -1.441142   -1.543434
H       1.077016    0.189879   -1.970430
H       3.258689   -0.746616   -0.916594
H       3.320940   -0.631464    2.929195
H       0.582707    0.075514    3.558718
H       0.144855   -1.529244    1.482824
