15

O       0.099838    0.113284    0.153081
C       0.085821    1.299772    0.055025
O      -1.050236    2.074489    0.059124
C      -0.492736    3.385880   -0.086274
C       0.685900    3.380083    0.999803
C       1.237841    2.316801   -0.049337
C       2.181324    1.835580   -1.180747
O       1.161079    2.323747   -2.148953
C       0.703687    3.231416   -1.099503
H      -1.283202    4.131639   -0.129738
H       1.263692    4.301895    1.049788
H       0.399439    3.031241    1.993205
H       3.115792    2.391827   -1.296491
H       2.328926    0.757608   -1.260933
H       1.224269    4.189518   -1.203019
