17

C      -0.073304    1.595456    0.047629
C       0.024357    0.099995    0.045915
C      -1.154705   -0.867558   -0.020872
O      -0.469817   -1.831565    0.840467
C       0.614925   -0.917496    1.004521
C       1.270489   -0.723705   -0.348181
O       1.190757   -1.746630   -1.295968
C       2.516799   -0.009007   -0.356717
C       3.554181    0.599737   -0.351806
H       0.901934    2.049451    0.238469
H      -0.425457    1.962296   -0.923448
H      -0.772984    1.946431    0.814273
H      -2.052889   -0.492836    0.480281
H      -1.407658   -1.290610   -0.997856
H       1.113479   -0.869338    1.966062
H       0.751201   -2.483742   -0.847971
H       4.477258    1.124789   -0.355612
