16

O       0.042509    0.022014    0.074867
C       0.032882    1.219242    0.028750
C      -1.247592    2.125521    0.042157
N      -0.809576    3.537153   -0.142942
C       0.477548    3.436660   -0.804562
C       1.888407    3.855110   -0.244376
C       1.555482    3.189645    1.092937
C       1.112253    2.255649   -0.089426
O       2.398069    2.527896   -0.752379
H      -1.888328    1.754644   -0.771027
H      -1.795921    1.989309    0.980447
H      -1.493486    4.080903   -0.653431
H       0.470038    3.351847   -1.898257
H       2.518263    4.714741   -0.474652
H       2.411890    2.812285    1.650572
H       0.774898    3.635144    1.706393
