21

C      -0.029749    1.558465    0.137431
C       1.510400    1.554916   -0.029000
C       2.313499    1.447901    1.291340
C       2.637494   -0.027177    1.497156
C       1.562238   -1.098410    1.509982
C       0.086003   -0.771259    1.317910
C      -0.033857    0.016439   -0.010580
C       1.427181    0.087328   -0.592079
C       2.333615   -0.812558    0.239191
H      -0.432234    1.973602    1.067878
H      -0.528378    2.048899   -0.703558
H       1.918043    2.327404   -0.685019
H       3.255033    2.002108    1.208848
H       1.765985    1.887325    2.134188
H       3.527926   -0.262245    2.072404
H       1.800899   -1.982808    2.093004
H      -0.472611   -1.711586    1.253311
H      -0.341282   -0.212056    2.159324
H      -0.815638   -0.396045   -0.652411
H       1.521241   -0.020022   -1.672607
H       3.025906   -1.512859   -0.212515
