16

N      -0.073087    1.287526   -0.245437
C      -0.062855   -0.060124   -0.090163
N      -1.057919   -0.890000   -0.250504
C      -0.442205   -2.101429   -0.022621
C      -1.167908   -3.401960   -0.111817
C      -1.678055   -3.684150   -1.536899
O      -2.379161   -4.911471   -1.617942
N       0.832064   -2.039404    0.260895
O       1.099289   -0.640544    0.217507
H       0.672662    1.802740    0.193990
H      -0.983098    1.718246   -0.222221
H      -0.507767   -4.210542    0.210101
H      -2.025797   -3.370233    0.572050
H      -2.287866   -2.838228   -1.883271
H      -0.826429   -3.777430   -2.218070
H      -3.201981   -4.815652   -1.127880
