20

C       0.258871    1.488234    0.135968
C      -0.253153    0.063877   -0.061937
N       0.489437   -0.587795   -1.139812
C       1.735065   -1.266802   -0.943148
C       1.812265   -2.096437    0.354224
C       0.514628   -2.854112   -0.059653
C       0.453626   -2.022250   -1.351421
C       0.115647   -2.529280   -2.692914
O      -0.207972   -3.670660   -2.923504
H       1.307764    1.487104    0.450149
H       0.185609    2.057402   -0.794690
H      -0.323598    2.001075    0.907111
H      -0.204474   -0.483234    0.890303
H      -1.305258    0.078523   -0.366715
H       2.577212   -0.992226   -1.570388
H       2.687828   -2.747784    0.368085
H       1.788508   -1.527052    1.287812
H       0.691595   -3.906612   -0.282996
H      -0.349792   -2.775936    0.604497
H       0.199067   -1.760957   -3.492315
