17

C      -0.399456    1.460975    0.039109
C       0.055121   -0.008661    0.053307
C       0.775151   -0.421433   -1.195894
C       2.106458   -0.648916   -1.397735
C       3.302229   -0.600943   -0.513599
O       2.327744   -0.986510   -2.684474
N       1.120115   -0.989523   -3.377290
C       0.220463   -0.654616   -2.488966
H       0.457440    2.134601   -0.058098
H      -1.071420    1.657908   -0.802244
H      -0.931188    1.713753    0.961689
H       0.702090   -0.180186    0.920792
H      -0.819759   -0.654184    0.199202
H       3.008323   -0.379316    0.514216
H       3.835007   -1.557315   -0.523896
H       4.005700    0.170761   -0.844083
H      -0.815869   -0.591550   -2.793515
