15

O       0.047774    1.383857    0.079578
C       0.002547   -0.019268    0.040721
C      -1.403534   -0.588147   -0.230620
C      -1.144691   -2.041856   -0.695286
C      -0.534520   -1.278177   -1.907510
N      -1.537811   -0.152798   -1.680141
C       0.674946   -0.622606   -1.237612
O       1.815982   -0.565194   -1.595880
H      -0.423726    1.681167   -0.711535
H       0.461696   -0.391919    0.959936
H      -2.195317   -0.306117    0.462145
H      -0.501694   -2.694582   -0.094463
H      -2.066469   -2.562895   -0.966806
H      -0.411565   -1.689452   -2.907052
H      -2.441198   -0.476287   -2.026521
