19

C       0.055951    1.455932   -0.023734
C      -0.015252   -0.051095   -0.036042
C      -0.865644   -0.807614    0.951932
C       0.634409   -0.949097    1.039146
C       1.372552   -1.975786    0.166129
C       0.370029   -2.295469   -0.983212
C       0.464165   -0.776237   -1.310517
C       1.956747   -0.967938   -0.878300
O       3.028007   -0.582290   -1.226401
H       1.023185    1.808552   -0.399791
H      -0.726279    1.898180   -0.652005
H      -0.072532    1.849041    0.989677
H      -1.300248   -0.187898    1.730276
H      -1.506093   -1.632403    0.663938
H       1.164080   -0.520289    1.881916
H       1.973101   -2.743042    0.649614
H       0.824080   -2.910272   -1.762978
H      -0.602482   -2.704304   -0.714820
H       0.178565   -0.364977   -2.276815
