23

C      -0.383885    1.182922   -0.104451
O       0.033716   -0.160532   -0.158229
C       0.933090   -0.522979   -1.230174
C       2.332624    0.030627   -0.944844
C       0.885025   -2.068911   -1.284928
C      -0.161859   -2.416369   -2.365040
C      -0.231264   -1.156030   -3.203214
C      -0.934480   -1.130164   -4.523082
C       0.380927   -0.139616   -2.591014
H       0.451202    1.888449    0.020955
H      -0.954451    1.479293   -0.996301
H      -1.036748    1.272612    0.768264
H       2.689403   -0.324919    0.026922
H       3.037178   -0.292953   -1.716795
H       2.340328    1.125044   -0.930293
H       1.865201   -2.452317   -1.584150
H       0.650453   -2.473310   -0.298193
H       0.119362   -3.294951   -2.957998
H      -1.146129   -2.639812   -1.931931
H      -1.987660   -1.418419   -4.411359
H      -0.900126   -0.139519   -4.984385
H      -0.490005   -1.850423   -5.221736
H       0.456188    0.866300   -2.991179
