16

C      -0.004920    1.503317    0.253774
C       0.058149   -0.006876    0.089905
C       1.379175   -0.661537   -0.320922
C       0.885584   -0.843151    1.069243
O       1.597516   -0.168403    2.074356
C       1.070629   -0.202829    3.326326
O       1.582684    0.358587    4.242864
C      -1.150402   -0.631369   -0.386478
N      -2.122675   -1.136770   -0.758077
H       0.927009    1.876177    0.682283
H      -0.164511    1.986238   -0.713932
H      -0.826667    1.789160    0.916642
H       1.352806   -1.510630   -0.992606
H       2.213164    0.017187   -0.458101
H       0.491884   -1.810411    1.366712
H       0.145061   -0.804979    3.385477
