14

O       0.301486    1.301721   -0.125525
C       0.077949   -0.057146   -0.051736
C      -0.377153   -0.666094    1.241641
O      -0.603748    0.279873    2.245515
C      -1.321959   -0.672623    0.046774
C      -2.592696    0.121527    0.115601
F      -2.414459    1.441085    0.252862
F      -3.342452   -0.074259   -0.975353
F      -3.341313   -0.269513    1.182449
H      -0.031483    1.686429    0.697170
H       0.779255   -0.612049   -0.666222
H       0.031440   -1.615403    1.582264
H      -1.485242    0.138786    2.610022
H      -1.475021   -1.624156   -0.450593
