18

O       0.173667    1.238163    0.730921
C       0.038813   -0.032570    0.131523
C      -1.354178   -0.371009   -0.341127
C      -2.373742    0.483264   -0.259036
C      -3.750544    0.092511   -0.713724
O      -4.331342   -0.981040    0.055855
C      -3.701853   -2.179203    0.107735
N      -2.573670   -2.590656   -0.281979
C      -1.548011   -1.765176   -0.913136
H      -0.339617    1.231080    1.545905
H       0.724155   -0.036169   -0.727429
H       0.390996   -0.836913    0.800075
H      -2.221214    1.480406    0.140249
H      -4.458752    0.914412   -0.596746
H      -3.754725   -0.202717   -1.771929
H      -4.368721   -2.883564    0.607256
H      -1.745882   -1.695603   -1.993966
H      -0.607476   -2.322044   -0.829588
