17

C      -0.385035    1.332885    0.123048
N      -0.119985   -0.081786   -0.058690
C      -0.060963   -0.888264    1.158803
C      -1.332815   -0.930418    1.879618
C      -2.374557   -0.951176    2.478473
C       0.139370   -0.704140   -1.258721
C       0.094282    0.153388   -2.515517
O       0.395495   -1.895184   -1.323286
H      -0.533298    1.828139   -0.833935
H      -1.290558    1.469127    0.724312
H       0.446391    1.828577    0.643947
H       0.238426   -1.891994    0.847556
H       0.721067   -0.493628    1.823669
H      -3.295433   -0.988696    3.006163
H       0.818799    0.972655   -2.479326
H       0.334144   -0.497172   -3.355528
H      -0.897243    0.588654   -2.674479
