17

C       0.003973    1.389563    0.115007
N       0.021147   -0.047697   -0.007565
C       0.101287   -0.793220   -1.134876
C       0.060708   -2.122251   -0.762748
C       0.121974   -3.330571   -1.637681
O       0.071134   -2.899585   -2.991420
C      -0.047175   -2.059648    0.642852
O      -0.118025   -3.133793    1.461902
N      -0.071799   -0.819155    1.107262
H       0.115754    1.827157   -0.878597
H      -0.939783    1.730024    0.552661
H       0.826596    1.729413    0.751333
H       0.174687   -0.346491   -2.112823
H       1.046429   -3.898660   -1.439723
H      -0.715380   -4.007581   -1.401214
H       0.167279   -3.674106   -3.552332
H      -0.192772   -2.796263    2.363185
