12

N       0.006017    1.375748   -0.082876
C       0.027639   -0.006427   -0.034768
N      -1.147277   -0.636979    0.009026
N      -1.184699   -1.964132   -0.019578
C      -0.028880   -2.613728   -0.072792
O      -0.109714   -3.953670   -0.095628
N       1.195323   -2.065652   -0.100083
C       1.222901   -0.748528   -0.087103
H       0.780988    1.848820    0.357007
H      -0.892886    1.762451    0.171091
H       0.797678   -4.282879   -0.132470
H       2.195654   -0.260906   -0.116053
