18

O      -0.184776    0.016994   -0.271608
C      -0.109631    1.155050    0.131263
C       1.143615    1.940724    0.097140
C       1.239966    3.442419   -0.191500
C       0.010758    4.337515   -0.080144
C      -0.550381    4.128868    1.351172
C       0.598898    3.497396    2.180315
C       1.594558    2.935899    1.171420
H      -1.005142    1.657637    0.550453
H       1.952961    1.356206   -0.330572
H       2.003551    3.721034   -0.909515
H       0.338424    5.374417   -0.214913
H      -0.739880    4.143271   -0.852798
H      -0.890347    5.070725    1.789680
H      -1.423048    3.471012    1.333736
H       1.114236    4.266224    2.766850
H       0.234822    2.750976    2.893402
H       2.626944    2.830454    1.486524
