18

O      -0.106106    1.509409   -0.028159
C       0.043334    0.111593   -0.048891
C      -1.324095   -0.568424    0.172987
N      -2.290872   -0.075138   -0.832231
C      -2.429059   -1.126628   -1.865802
C      -2.290055   -2.453036   -1.100530
O      -1.907423   -3.564711   -1.854126
C      -1.247235   -2.075479   -0.049112
O      -0.446187   -2.855028    0.405143
H      -0.857240    1.686359   -0.612944
H       0.477313   -0.238345   -1.000165
H       0.730650   -0.173745    0.751925
H      -1.660265   -0.330151    1.187195
H      -3.190507    0.092321   -0.397952
H      -3.376930   -1.018571   -2.394815
H      -1.620043   -1.047298   -2.601039
H      -3.237657   -2.638899   -0.558475
H      -1.233802   -4.023910   -1.329454
