18

C      -0.365833    1.483615   -0.157082
C       0.121701    0.052081    0.108275
C       0.878247   -0.517413   -1.058485
O       0.125690   -0.828887   -2.257896
C       0.813774   -1.885752   -1.593985
C       2.142311   -2.229133   -2.248942
N       2.883988   -0.984477   -2.125695
C       2.256810    0.018695   -1.436348
O       2.719523    1.107644   -1.170366
H       0.481719    2.142013   -0.358076
H      -1.034156    1.505313   -1.022914
H      -0.914186    1.868954    0.707217
H       0.778955    0.036790    0.985766
H      -0.726822   -0.605279    0.327985
H       0.196300   -2.668233   -1.162828
H       2.636626   -3.053012   -1.717654
H       2.005862   -2.524739   -3.296161
H       3.761837   -0.813120   -2.588909
