21

C      -0.196968    1.563234   -0.000769
C       0.019562    0.057574    0.033646
C       1.251127   -0.595880   -0.654603
C       2.167977   -0.138049    0.529683
C       3.243965   -1.200140    0.748976
C       2.388263   -2.486658    0.562333
O       2.250660   -3.271576    1.740450
C       1.041908   -1.856013    0.243067
C       0.827056   -0.619236    1.176722
H       0.714729    2.130059    0.206607
H      -0.566112    1.877927   -0.983540
H      -0.947832    1.861971    0.739479
H      -0.922960   -0.457154   -0.190672
H       1.505999   -0.589757   -1.717723
H       2.462571    0.907826    0.612356
H       4.061480   -1.120975    0.024025
H       3.674338   -1.166642    1.755457
H       2.754534   -3.108883   -0.267828
H       3.109939   -3.652177    1.946432
H       0.201637   -2.522820    0.042988
H       0.588669   -0.649281    2.241243
