20

O      -0.694739   -2.775754   -0.641058
C      -1.278480   -2.002895    0.385967
C      -1.357478   -0.516020   -0.017995
C       0.059240    0.013659   -0.214175
O       0.701152    0.529346    0.662930
N      -2.099436   -0.421082   -1.263422
C      -2.303973    0.909610   -1.889504
C      -3.724904    0.461294   -2.302796
C      -3.565930   -0.652623   -1.241494
H      -1.079409   -2.441788   -1.463270
H      -2.292860   -2.354746    0.637466
H      -0.658560   -2.109760    1.281083
H      -1.815078    0.057822    0.808440
H       0.474929   -0.136089   -1.233927
H      -2.325511    1.726778   -1.152123
H      -1.589166    1.162918   -2.678062
H      -4.534756    1.175646   -2.157115
H      -3.762829    0.069620   -3.320569
H      -3.879748   -1.667575   -1.502850
H      -4.024410   -0.376470   -0.278955
