18

C      -0.036987    1.576900   -0.034573
C       0.159326    0.063607    0.010661
C       1.307107   -0.848196   -0.343871
N       2.726212   -0.549653    0.065946
C       2.818947    0.766193    0.730598
C       2.229790   -0.369959    1.471522
C       0.782104   -0.786402    1.103191
C       0.065268   -1.747169    1.864593
C      -0.530905   -2.554018    2.531203
H       0.452784    2.030510   -0.902375
H      -1.105636    1.796944   -0.113703
H       0.325436    2.074897    0.866868
H      -0.737990   -0.455647   -0.324466
H       1.188125   -1.646202   -1.066330
H       3.849066    1.006975    0.981915
H       2.243184    1.606910    0.378258
H       2.737953   -0.856799    2.296978
H      -1.058882   -3.269286    3.111254
