21

C       0.002548    1.500001   -0.038441
C       0.069277   -0.034018    0.004581
C       0.681634   -0.537817    1.310947
O      -1.246092   -0.586914   -0.066299
C       0.841229   -0.559131   -1.188019
C       2.197117   -0.156333   -1.829470
C       1.427136   -1.081000   -2.800072
C       1.081358   -2.027767   -1.631612
O       0.191897   -0.310659   -2.517214
H       0.991414    1.948924    0.099668
H      -0.392313    1.836129   -1.001471
H      -0.658128    1.857124    0.755876
H       0.077484   -0.192699    2.154469
H       0.698921   -1.630683    1.328758
H       1.701625   -0.163819    1.438598
H      -1.536619   -0.486564   -0.981840
H       2.274929    0.884666   -2.144122
H       3.113519   -0.537825   -1.372688
H       1.636579   -1.313896   -3.843627
H       1.897703   -2.578265   -1.157944
H       0.178878   -2.624377   -1.761382
