19

C       0.048482    1.504321    0.096905
C      -0.021930   -0.002198   -0.034610
C       0.679113   -0.632583   -1.255964
C       0.135837   -2.061514   -1.100391
O       0.802094   -2.649776    0.034575
C       0.530790   -1.957806    1.236580
O       0.639937   -0.552694    1.134073
C      -1.335550   -1.786646   -0.789176
C      -1.423266   -0.609367   -0.168822
H       1.089298    1.831043    0.173703
H      -0.406111    1.984085   -0.775093
H      -0.479719    1.837056    0.995587
H       0.341748   -0.174858   -2.190223
H       1.767200   -0.585780   -1.179950
H       0.320664   -2.738287   -1.935338
H      -0.471488   -2.226723    1.600833
H       1.284493   -2.278933    1.959229
H      -2.135771   -2.496992   -0.957356
H      -2.309410   -0.163799    0.268160
