22

C       0.047904    1.715339   -0.362366
C       0.052443    0.200275   -0.413130
C       0.575199   -0.666554   -1.490179
C       1.909376   -0.216154   -2.061879
O       1.869050    1.019628   -2.748453
C       2.484837   -0.302448   -0.603444
C       3.410519   -1.509610   -0.452986
C       3.119707    0.928342    0.032959
N       1.134337   -0.744232   -0.062277
H       0.769552    2.164107   -1.040343
H      -0.946443    2.064456   -0.662054
H       0.226128    2.072327    0.657641
H      -0.863432   -0.210376    0.013430
H      -0.012396   -1.475999   -1.912968
H       2.355680   -0.990022   -2.699750
H       2.738619    1.178587   -3.129522
H       4.354759   -1.343123   -0.983824
H       3.633721   -1.689974    0.603151
H       2.940778   -2.413594   -0.851580
H       2.633924    1.860134   -0.250789
H       3.079470    0.836862    1.123895
H       4.175174    1.000809   -0.252632
