18

N      -0.012284    1.128818   -0.426923
C      -0.035159   -0.060803   -0.031562
O       0.964740   -0.867661    0.494152
C       0.037509   -1.977444    0.633200
C       0.463029   -3.379432    0.384980
C       0.106077   -2.904869    1.792266
C      -1.072104   -1.126279    0.064726
C      -2.511859   -0.974217    0.464813
C      -2.160222   -1.441699   -0.921478
H       0.916081    1.541264   -0.330533
H      -0.223037   -4.043073   -0.131576
H       1.511532   -3.549176    0.166349
H       0.921260   -2.764419    2.493494
H      -0.823863   -3.244285    2.237176
H      -2.913400   -1.699446    1.165019
H      -2.877866    0.038466    0.591995
H      -2.284422   -0.750481   -1.747587
H      -2.321686   -2.486095   -1.167746
