23

O      -0.119189    1.486256   -0.338332
C       0.001845    0.074509   -0.235545
C      -1.370746   -0.484958    0.128206
C      -1.396838   -1.993557    0.235927
C      -1.564671   -2.825713   -1.018288
C      -2.665465   -2.794637    0.016749
C      -2.713331   -3.928301    1.030063
C      -1.253930   -4.074240    1.520477
C      -0.639071   -2.662380    1.383328
H       0.743825    1.846240   -0.561872
H       0.340206   -0.369382   -1.185579
H       0.738324   -0.204619    0.534774
H      -1.687743   -0.031513    1.076558
H      -2.084876   -0.150140   -0.633430
H      -1.744774   -2.285543   -1.942185
H      -0.981111   -3.731790   -1.149130
H      -3.591621   -2.292734   -0.244361
H      -3.370984   -3.642299    1.860160
H      -3.106319   -4.864056    0.617227
H      -1.191229   -4.459140    2.541725
H      -0.712572   -4.784165    0.887153
H       0.444925   -2.701219    1.227448
H      -0.808846   -2.080446    2.299040
