18

N      -0.163098    1.233808    0.056220
C      -0.146606   -0.013156    0.238441
O      -1.077816   -0.791486   -0.365853
C      -0.937531   -2.162816   -0.201884
C      -0.127408   -3.111439   -1.074210
C      -0.981454   -4.231025   -0.405873
C      -0.533398   -4.225843    1.084599
C      -1.184412   -2.847803    1.159262
C      -2.066560   -3.133686   -0.042615
H       0.588292    1.670874    0.586065
H       0.552953   -0.584202    0.861451
H      -0.384087   -2.982939   -2.128976
H       0.961087   -3.160321   -0.954034
H      -1.172760   -5.161025   -0.934912
H      -1.086252   -4.959595    1.677710
H       0.539699   -4.321024    1.288228
H      -1.437030   -2.252809    2.027871
H      -3.129117   -3.037386   -0.206109
