18

C      -0.269062    1.347645   -0.006998
O      -0.169617   -0.052960   -0.078209
C       0.784993   -0.485783   -1.026038
C       0.802611   -1.990916   -1.014414
N      -0.082357   -2.685284   -1.964185
C       1.376238   -2.828333   -2.103337
C       2.011094   -2.284720   -3.362671
H       0.687294    1.813161    0.283039
H      -0.583137    1.786189   -0.967751
H      -1.020078    1.585475    0.750502
H       0.529350   -0.114929   -2.029664
H       1.783920   -0.091413   -0.765770
H       0.873162   -2.397618   -0.006540
H      -0.491504   -3.510369   -1.535256
H       1.808471   -3.771294   -1.768226
H       1.522619   -1.364695   -3.690241
H       3.075798   -2.078694   -3.206900
H       1.926299   -3.012978   -4.176441
