21

O      -0.154139    1.503804    0.173961
C       0.012158    0.096460    0.017924
C       0.852549   -0.507640    1.167796
C       0.668669   -2.044297    1.286525
C      -0.828785   -2.315904    1.543965
C      -1.398163   -2.041360    0.135638
C      -1.400159   -0.506520   -0.089265
C      -0.330605   -2.711883   -0.723255
C       0.835492   -2.713176   -0.074582
H       0.718102    1.909410    0.136933
H       0.536436   -0.107476   -0.925548
H       1.908659   -0.248723    1.015730
H       0.539943   -0.036067    2.107068
H       1.329052   -2.445918    2.060518
H      -0.986332   -3.361726    1.825006
H      -1.259547   -1.673842    2.319038
H      -2.403660   -2.443477   -0.017377
H      -2.035446   -0.033348    0.668626
H      -1.822814   -0.244415   -1.065013
H      -0.500039   -3.048362   -1.739863
H       1.788169   -3.051635   -0.466164
