18

C       0.040014    1.482374   -0.058736
C      -0.056966   -0.012793    0.025960
N      -1.179551   -0.606904   -0.029461
C      -1.203451   -2.076527    0.009800
C       0.148938   -2.688038   -0.411363
C       1.246841   -1.977970    0.362461
O       1.181003   -0.560398    0.152267
C      -1.612631   -2.546252    1.336869
C      -1.923273   -2.948286    2.426270
H       0.689569    1.771933   -0.890803
H      -0.953319    1.905943   -0.198690
H       0.488113    1.883187    0.856092
H      -1.972596   -2.392371   -0.706169
H       0.176193   -3.763183   -0.215609
H       0.290564   -2.530684   -1.485933
H       1.146832   -2.178116    1.436282
H       2.246679   -2.279112    0.041908
H      -2.215320   -3.293141    3.387287
