22

C       0.080816    1.330596   -0.436897
C      -0.029186   -0.098954    0.131915
C       0.642170   -0.247710    1.524745
C       2.135251    0.011338    1.529231
C       3.021707   -0.648310    2.532099
N       3.142863   -0.973420    1.116617
C       2.745859   -2.309739    0.698905
C      -1.428837   -0.515542    0.208106
C      -2.582267   -0.844612    0.293432
H       1.126672    1.615388   -0.577845
H      -0.423731    1.398188   -1.403884
H      -0.388240    2.051601    0.240023
H       0.485728   -0.777743   -0.561369
H       0.164745    0.458884    2.215461
H       0.422248   -1.245142    1.914226
H       2.409563    1.020610    1.225593
H       3.857902   -0.116165    2.979076
H       2.555488   -1.387232    3.184599
H       1.896846   -2.738524    1.253586
H       2.491357   -2.300291   -0.366194
H       3.600766   -2.980737    0.831846
H      -3.599503   -1.142103    0.357121
