17

C      -0.050774    1.424933    0.085488
N      -0.030955   -0.030216    0.139917
C      -1.097153   -0.667171    0.012717
O      -2.412231   -0.210197   -0.180017
C      -2.918693   -1.578967   -0.143837
C      -2.983224   -2.301179   -1.495127
C      -1.864800   -1.931925   -2.380561
N      -1.583628   -2.890732   -1.297405
C      -1.502978   -2.126313    0.028292
H       0.591352    1.758390   -0.737102
H      -1.049534    1.856009   -0.047933
H       0.385720    1.819651    1.009182
H      -3.741171   -1.700342    0.557793
H      -3.813303   -2.922107   -1.814907
H      -1.840272   -2.408058   -3.355847
H      -1.445234   -0.931786   -2.354098
H      -1.154564   -2.765275    0.835339
