17

O       0.138016    1.415302    0.123111
C      -0.000224    0.036930   -0.005273
C       0.272378   -0.695618    1.331861
O      -1.069995   -1.268855    1.361005
C      -1.331866   -0.769274    0.072928
C      -2.621153   -0.347300   -0.590379
O      -2.031832   -0.691351   -1.879182
C      -0.942859   -1.441822   -1.272246
C       0.403456   -0.682830   -1.326802
H      -0.087682    1.823235   -0.719858
H       1.047549   -1.468936    1.319167
H       0.429084   -0.010427    2.169456
H      -3.487481   -0.981755   -0.360044
H      -2.908793    0.708422   -0.528186
H      -0.989066   -2.510568   -1.494647
H       0.477053   -0.018041   -2.192819
H       1.305064   -1.300283   -1.273810
