21

C      -0.680825    1.791855    0.066474
O      -0.464327    0.533949    0.664741
C      -1.264624   -0.484739    0.124142
C      -0.914979   -1.055775   -1.283280
C      -1.034509   -2.493144   -0.690925
C       0.199767   -3.416463   -0.730732
O       0.728713   -3.437873    0.589466
C       0.399382   -2.200066    1.210420
C      -1.031097   -1.879355    0.743286
H      -0.030816    2.509846    0.572151
H      -0.434823    1.786640   -1.006016
H      -1.726956    2.118733    0.177501
H      -2.326173   -0.196662    0.177600
H      -1.586903   -0.798721   -2.104813
H       0.111472   -0.813392   -1.575493
H      -1.954868   -3.003718   -0.976454
H      -0.039101   -4.448709   -1.005368
H       0.948090   -3.037265   -1.445431
H       0.484277   -2.340730    2.290296
H       1.095995   -1.404628    0.909969
H      -1.779973   -2.229580    1.455431
