17

N       0.006401   -1.133117   -0.147396
C       0.038936    0.008701    0.022457
C       0.085270    1.453579    0.265321
N       1.277151    2.048148   -0.324966
C       1.376921    3.473709   -0.125633
C       1.639670    4.101420    1.317320
C       2.955681    4.649534    0.762903
O       3.713838    3.522017    0.301980
C       2.716998    4.071836   -0.569770
H      -0.801409    1.906211   -0.196649
H      -0.013641    1.615871    1.353872
H       2.114153    1.605197    0.042226
H       0.526742    3.968711   -0.606548
H       0.912014    4.873178    1.579131
H       1.750686    3.398990    2.147633
H       3.511546    5.533723    1.049704
H       3.035661    4.375065   -1.559931
