11

O      -0.046954    1.359390    0.010449
C       0.050084    0.013453    0.002621
C       1.198307   -0.709621   -0.008362
N       1.221479   -2.090063   -0.015694
C       0.086223   -2.673798   -0.011499
O      -1.117988   -2.070358   -0.000842
C      -1.242085   -0.674721    0.006829
O      -2.332961   -0.186619    0.017004
H       0.837426    1.744570    0.007145
H       2.168646   -0.218494   -0.011798
H      -0.009343   -3.754089   -0.016411
