20

C       0.043463    1.596787   -0.046110
C      -0.003558    0.093212    0.066940
N       1.272608   -0.635415   -0.140072
C       0.632344   -0.652352    1.171748
C       1.320575   -0.147585    2.427897
O       0.293275   -0.039451    3.430222
C       0.864398   -1.327566    3.179819
C       0.155146   -1.921494    1.941273
C      -1.334002   -2.212622    2.053789
H       0.970493    1.985928    0.382676
H      -0.000677    1.911507   -1.094228
H      -0.800509    2.051455    0.483153
H      -0.895848   -0.370620   -0.353318
H       1.108015   -1.515331   -0.624361
H       2.204000    0.470108    2.533750
H       1.313446   -1.846324    4.019019
H       0.708591   -2.795910    1.576522
H      -1.852965   -1.354735    2.488971
H      -1.774887   -2.419269    1.072467
H      -1.518217   -3.086856    2.687693
