21

C      -0.076181    1.533522   -0.041027
C       0.045227    0.027992   -0.004804
C       1.133262   -0.708250   -0.845418
C       1.065620   -1.815876    0.246035
C       0.634610   -0.695284    1.237533
C      -0.134801   -2.728714   -0.051025
O      -0.539579   -3.481986    1.082812
C      -1.268527   -1.874040   -0.668843
O      -1.257775   -0.509640   -0.252644
H       0.879330    2.004156    0.207883
H      -0.385088    1.870100   -1.035558
H      -0.829163    1.870388    0.678392
H       0.911100   -0.967650   -1.883500
H       2.078824   -0.162031   -0.807442
H       1.960413   -2.396114    0.477431
H       1.500522   -0.174527    1.654942
H      -0.068658   -0.923231    2.044881
H       0.154755   -3.486843   -0.787637
H      -0.772057   -2.864594    1.784381
H      -1.201040   -1.922414   -1.765314
H      -2.237538   -2.290293   -0.379510
