19

N       0.094562    1.467120   -0.057387
C       0.056457    0.056252   -0.003941
C      -1.076703   -0.737046   -0.018308
C      -2.524066   -0.374090   -0.061511
C      -3.056962   -0.154971   -1.481743
O      -4.433276    0.179218   -1.381639
N      -0.639768   -2.052413   -0.049367
C       0.724680   -2.099513   -0.036151
C       1.191725   -0.804771   -0.012777
H       0.880404    1.839295    0.462253
H      -0.752211    1.886028    0.309490
H      -3.134079   -1.148910    0.420347
H      -2.703324    0.544666    0.511426
H      -2.477765    0.645314   -1.966251
H      -2.906192   -1.071560   -2.074184
H      -4.763989    0.361967   -2.265748
H      -1.248130   -2.851435   -0.030728
H       1.252549   -3.039446   -0.037271
H       2.227628   -0.500513   -0.008695
