11

F       0.001143    0.027003    0.003604
C      -0.012705    1.359047    0.010496
C      -1.218647    2.040767    0.030387
N      -1.264707    3.377685    0.037762
C      -0.142992    4.047114    0.025825
F      -0.205015    5.371850    0.033246
C       1.116328    3.438477    0.005506
F       2.216608    4.181738   -0.005823
C       1.189886    2.059297   -0.002432
H      -2.158374    1.498869    0.040507
H       2.145082    1.549940   -0.018060
