18

C      -0.199750    1.608715   -0.163683
C      -0.052540    0.098200   -0.065090
C       1.093345   -0.605689   -0.914476
O       1.980916    0.202642   -1.629535
C       1.640764   -1.217582    0.383989
N       2.007524   -0.082001    1.221941
C       0.584093   -0.491979    1.198142
C      -0.024777   -1.054645    2.410976
O       0.614088   -1.384686    3.386861
H       0.722373    2.113884    0.133691
H      -0.433987    1.906183   -1.190022
H      -1.004763    1.966262    0.486834
H      -1.005486   -0.401180   -0.270912
H       0.693327   -1.345292   -1.610527
H       2.470545    0.711232   -0.969143
H       2.050272   -2.205236    0.561135
H       2.390320   -0.438477    2.099169
H      -1.127443   -1.182922    2.368991
