20

C      -0.568670    1.278389   -0.723435
O      -0.698256   -0.149131   -0.690183
C      -0.893159   -0.684619    0.532320
O      -0.922931   -0.041253    1.550158
C      -1.085882   -2.184653    0.423867
C      -1.517347   -2.951228    1.690189
C      -2.561789   -3.641165    0.779326
N      -2.361778   -2.571071   -0.219494
C      -2.357471   -2.909228   -1.624877
H      -0.413778    1.539012   -1.770437
H      -1.474105    1.755740   -0.340145
H       0.281759    1.601741   -0.118022
H      -0.204208   -2.626697   -0.070146
H      -0.767711   -3.586737    2.160308
H      -1.953781   -2.282636    2.432219
H      -2.215994   -4.626373    0.425560
H      -3.588582   -3.738893    1.146423
H      -3.361302   -3.220678   -1.932678
H      -2.078039   -2.028790   -2.210381
H      -1.653355   -3.727461   -1.871040
