15

O       0.113220    1.407033    0.110607
C       0.009032    0.011479    0.017430
C      -1.440672   -0.567999   -0.121164
C      -1.317803   -1.328853   -1.465721
O       0.033320   -1.830867   -1.412592
C       0.641597   -0.577364   -1.269771
O       0.116382    0.209829   -2.373718
C      -1.169117   -0.257612   -2.548588
O      -1.935300    0.176529   -3.350686
H      -0.067192    1.773851   -0.764244
H       0.511042   -0.397973    0.896644
H      -1.679472   -1.266897    0.681969
H      -2.189729    0.226015   -0.134888
H      -2.031364   -2.117976   -1.682871
H       1.724822   -0.627367   -1.347831
