25

C      -1.499194   -0.822657    2.766439
C      -1.073601   -1.874291    1.736584
C       0.042128   -1.494525    0.761744
C       0.133201   -0.079308    0.224561
C       1.144051   -0.566485    1.230613
C       0.496322   -2.592259   -0.189016
C      -0.203206   -3.925558   -0.343577
C      -0.208925   -2.944295   -1.487578
C      -1.490789   -2.270274   -1.924703
H      -0.683727   -0.553619    3.444322
H      -1.864606    0.095736    2.296287
H      -2.314023   -1.216590    3.381792
H      -0.759083   -2.779934    2.271127
H      -1.963863   -2.164738    1.163766
H       0.454391    0.040423   -0.804422
H      -0.592341    0.658085    0.549382
H       1.098034   -0.158448    2.233450
H       2.153238   -0.769802    0.886903
H       1.579104   -2.659290   -0.258435
H       0.405075   -4.821282   -0.413211
H      -1.140708   -4.075928    0.180633
H       0.457908   -3.184045   -2.312664
H      -2.140457   -2.039528   -1.076049
H      -1.290397   -1.328677   -2.447476
H      -2.056024   -2.914877   -2.607393
