12

O      -0.003549   -0.040040   -0.002449
C       0.008401    1.162566    0.008360
C       1.247341    1.981794    0.001624
C       1.255738    3.325890    0.013062
C       2.531486    4.059434    0.004895
O       2.607651    5.265009    0.015324
N       3.691870    3.237602   -0.014466
C       3.554986    1.975385   -0.023750
O       2.399751    1.262270   -0.017248
H      -0.915629    1.776417    0.023359
H       0.327385    3.884405    0.028233
H       4.405879    1.300109   -0.038716
