22

C       0.043507    1.561464   -0.054857
C       0.107534    0.032538   -0.029970
C       0.694005   -0.535854    1.260202
C       0.687829   -2.059676    1.305070
O       2.059445   -0.050490    1.326882
C       2.624894    0.059086    2.530806
N       2.043058   -0.245065    3.617954
O       3.872563    0.540049    2.322261
C       4.683485    0.736498    3.468944
H       1.042165    1.992928    0.051616
H      -0.384105    1.921451   -0.995448
H      -0.577614    1.944282    0.762640
H      -0.898083   -0.388189   -0.148831
H       0.702355   -0.333962   -0.875848
H       0.161775   -0.139330    2.130425
H      -0.339660   -2.431702    1.241860
H       1.256425   -2.472489    0.465515
H       1.123789   -2.413307    2.241329
H       2.624616   -0.080163    4.432129
H       4.849327   -0.203759    4.008482
H       5.637775    1.114373    3.100556
H       4.241605    1.472692    4.151286
