21

C      -0.033873    1.502695   -0.030129
C       0.034773    0.007894   -0.039892
C      -0.096891   -0.800248   -1.099216
C       0.004513   -2.260367   -0.754356
C       1.365057   -2.939855   -1.116726
O       2.076372   -2.498358   -2.244654
C       1.895323   -2.589944    0.302209
C       0.449283   -2.222697    0.748851
C       0.236518   -0.780767    1.241633
H       0.895720    1.939559    0.356901
H      -0.211239    1.909153   -1.029505
H      -0.837084    1.855666    0.629534
H      -0.284529   -0.451254   -2.110424
H      -0.890681   -2.824425   -1.037660
H       1.243876   -4.018916   -1.247825
H       2.141284   -1.538328   -2.181331
H       2.402299   -3.389391    0.847665
H       2.554629   -1.715549    0.282270
H      -0.006168   -2.975483    1.393362
H       1.092417   -0.413356    1.824600
H      -0.641852   -0.680980    1.895554
