18

C      -0.141195    1.560562   -0.171941
C      -0.009289    0.055442   -0.047991
O      -1.243759   -0.575659    0.225537
C       0.655833   -0.706996   -1.203429
N       2.026876   -0.162875   -1.328181
C       1.742221   -1.216717   -0.331630
C       1.155316   -0.516151    0.907647
C       1.992895    0.383696    1.670394
C       2.667484    1.143082    2.315111
H       0.809812    2.000340   -0.476204
H      -0.908999    1.807187   -0.912106
H      -0.426178    2.004288    0.789627
H      -1.663681   -0.102786    0.952413
H       0.140544   -1.173834   -2.033279
H       2.460458   -0.614267   -2.132484
H       2.270761   -2.161457   -0.347046
H       0.675393   -1.253727    1.557408
H       3.275249    1.809946    2.874583
