20

C      -0.045515    1.546168    0.093485
C      -0.003459    0.025622   -0.011637
C      -1.374893   -0.562591   -0.334881
C       1.128657   -0.586012   -0.928757
C       1.710646   -1.292592    0.294429
N       2.076816   -0.233318    1.251463
C       0.661022   -0.707043    1.193209
C       0.014084   -1.247886    2.336319
C      -0.556937   -1.686931    3.301747
H       0.932497    1.941099    0.376902
H      -0.335828    1.990883   -0.865294
H      -0.778706    1.864623    0.843171
H      -1.732946   -0.186696   -1.299501
H      -1.340550   -1.655738   -0.387702
H      -2.108601   -0.289120    0.430563
H       0.727061   -1.270184   -1.679308
H       1.804833    0.128225   -1.404956
H       2.172267   -2.271249    0.346033
H       2.499464   -0.682165    2.064097
H      -1.058101   -2.079683    4.151191
