18

O      -0.156406    1.466464    0.195199
C      -0.028203    0.059631    0.017149
C       0.875094   -0.558711    1.094982
C       0.828338   -2.079735    1.210187
O       1.778099   -2.739474    1.588045
N      -0.377760   -2.647167    0.902849
C      -1.559592   -1.957615    0.467918
C      -2.162810   -0.845043    1.294888
C      -1.416352   -0.533455    0.013866
H       0.716829    1.859539    0.093013
H       0.415696   -0.151683   -0.969467
H       1.920557   -0.280740    0.938753
H       0.580476   -0.145168    2.067321
H      -0.439236   -3.636255    1.092988
H      -2.228267   -2.606189   -0.086914
H      -3.240033   -0.722070    1.291290
H      -1.688421   -0.613670    2.241603
H      -2.020762   -0.225408   -0.832926
