22

C       0.115200    1.374805    0.163760
O      -0.388456    0.190006   -0.437857
C       0.532395   -0.589953   -1.045498
N       0.197302   -1.687842   -1.556500
C       1.186170   -2.497393   -2.238138
C       0.923725   -2.401527   -3.744996
C       2.715363   -2.381998   -1.897690
C       2.788572   -3.931924   -1.881686
C       1.243312   -3.976237   -1.750251
H       0.807559    1.148143    0.984186
H       0.622781    2.015813   -0.568015
H      -0.747959    1.907964    0.564218
H       1.548733   -0.170527   -1.041481
H       1.099385   -1.380707   -4.101237
H       1.577604   -3.077069   -4.305877
H      -0.116068   -2.663187   -3.961326
H       3.352456   -1.844555   -2.605690
H       2.877847   -1.971073   -0.897003
H       3.141590   -4.341747   -2.831417
H       3.366834   -4.389461   -1.076451
H       0.923042   -4.046275   -0.707869
H       0.694341   -4.715288   -2.339755
