21

O      -0.143408    1.448666   -0.088661
C       0.009506    0.044394    0.076352
C      -1.368170   -0.586485   -0.041591
C      -2.049971   -0.429546   -1.439617
C      -2.332172   -1.915884   -1.743380
O      -3.048290   -2.232073   -2.896241
C      -2.858555   -2.438767   -0.384285
C      -1.398123   -2.131427    0.060405
C      -0.974454   -2.592699   -1.364984
H       0.726639    1.854505   -0.035736
H       0.689209   -0.369418   -0.685139
H       0.439386   -0.194839    1.063038
H      -1.994618   -0.143831    0.740515
H      -2.968855    0.161516   -1.405564
H      -1.381169    0.027871   -2.177435
H      -2.690883   -1.716402   -3.626915
H      -3.674551   -1.891812    0.097366
H      -3.076006   -3.508425   -0.413964
H      -0.971582   -2.583312    0.955612
H      -1.017923   -3.677375   -1.482609
H      -0.051133   -2.199680   -1.800485
