18

O      -0.162092    1.458562    0.121466
C      -0.015162    0.047714    0.093301
C      -1.399805   -0.561560   -0.090765
C      -1.385253   -2.083722   -0.133571
C      -1.074677   -2.849143    1.196322
C      -2.314605   -3.716389    0.925446
O      -2.724490   -4.743100    1.382070
C      -2.768282   -2.804911   -0.225783
H       0.706629    1.850453    0.248957
H       0.641540   -0.269952   -0.733741
H       0.436619   -0.325555    1.027024
H      -2.044759   -0.217029    0.728125
H      -1.832136   -0.164400   -1.017234
H      -0.723178   -2.431434   -0.933450
H      -0.124271   -3.381088    1.286670
H      -1.210751   -2.228351    2.090213
H      -3.605713   -2.164425    0.075231
H      -3.033516   -3.303806   -1.161335
