19

C      -0.038369    1.536506    0.041942
C       0.038748    0.037010    0.017988
C      -0.846645   -0.842281    0.858016
C       0.646475   -0.946334    1.030104
C       1.312810   -1.745207   -0.117269
C       0.685269   -0.757783   -1.152000
C      -0.103040   -1.915957   -1.828958
C       0.484817   -2.880324   -0.764543
O       0.366980   -4.052600   -0.560457
H       0.922213    1.991896   -0.225498
H      -0.788779    1.905446   -0.668524
H      -0.317446    1.902480    1.035508
H      -1.350733   -0.320134    1.665973
H      -1.434297   -1.657138    0.445275
H       1.121802   -0.753743    1.984524
H       2.387894   -1.900713   -0.023434
H       1.327141   -0.158992   -1.796781
H      -1.193340   -1.850816   -1.877478
H       0.270692   -2.167016   -2.827735
