19

C       0.383775    0.809650   -0.237623
O      -0.027747   -0.478088    0.161973
C      -1.416437   -0.743806    0.026327
C      -1.876974   -0.816646   -1.431263
C      -1.666591   -2.049948    0.780576
O      -1.110836   -3.180660    0.118926
C       0.183395   -3.470945    0.375797
N       0.756079   -4.388735   -0.274014
H       1.430813    0.915472    0.056783
H       0.311496    0.959690   -1.323301
H      -0.205264    1.594906    0.261799
H      -1.988276    0.042631    0.551670
H      -2.946793   -1.044063   -1.475782
H      -1.720101    0.133899   -1.946900
H      -1.335117   -1.602720   -1.961691
H      -1.263706   -1.961962    1.797293
H      -2.741465   -2.239404    0.846025
H       0.619556   -2.855084    1.170505
H       1.711484   -4.498857    0.059525
