16

C       0.051658    1.625898    0.020448
N       1.515759    1.926565   -0.078102
C       1.980857    0.864851   -0.583341
O       3.145864    0.161536   -0.382610
C       2.240719   -1.049087   -0.193798
C       1.697889   -1.149965    1.211305
C       0.498815   -0.565957    1.337230
C      -0.043544    0.044379    0.050061
C       1.097274   -0.300101   -0.910431
H      -0.327703    2.083385    0.938144
H      -0.521610    2.038917   -0.820001
H       2.729491   -1.923744   -0.620574
H       2.258098   -1.601868    2.020733
H      -0.038727   -0.483002    2.276645
H      -1.040486   -0.322518   -0.210452
H       0.895798   -0.529669   -1.953880
