19

C      -0.029105    1.564581    0.059792
C       0.019809    0.032905    0.010871
C      -1.390633   -0.568930   -0.053097
N       0.780066   -0.396717   -1.186693
C       1.717011   -1.196727   -0.835905
N       2.514419   -1.890414   -1.713170
C       1.860878   -1.385804    0.648854
O       2.142872   -0.127952    1.294608
C       0.783029   -0.560691    1.204065
H       0.980406    1.968465    0.164247
H      -0.465430    1.952672   -0.864437
H      -0.635101    1.911907    0.903315
H      -1.891662   -0.245378   -0.969276
H      -1.349010   -1.662846   -0.060182
H      -1.993131   -0.249891    0.804851
H       2.444999   -1.580006   -2.672380
H       3.458233   -2.079064   -1.411351
H       2.290524   -2.271529    1.108057
H       0.292662   -0.775051    2.150615
