18

C      -0.411053    1.500751    0.072534
C       0.098160    0.062893    0.007581
C       1.060315   -0.218369   -1.157411
O       1.044192    0.344064   -2.220413
C       2.034740   -1.325420   -0.741744
C       1.986382   -1.382715    0.797659
C       0.853060   -0.458737    1.206695
N       0.549718   -0.094822    2.387272
O       1.394639   -0.697910    3.336313
H       0.409520    2.190523    0.288741
H      -0.849157    1.780692   -0.888349
H      -1.159995    1.609577    0.859345
H      -0.757374   -0.611002   -0.175200
H       1.691775   -2.260612   -1.199766
H       3.025916   -1.121126   -1.152483
H       1.815821   -2.391607    1.186211
H       2.915451   -1.037824    1.262060
H       1.073106   -0.321458    4.162319
