18

C      -0.113039    1.512432   -0.036308
C      -0.020450   -0.002570    0.007497
O      -1.335146   -0.534662    0.020630
C      -1.376949   -1.939365    0.059155
C      -2.868440   -2.328069    0.001612
N      -3.586279   -1.837747   -1.176201
C      -2.999139   -3.787101    0.104269
N      -3.061770   -4.937998    0.179495
H       0.888150    1.952806   -0.044998
H      -0.643450    1.840390   -0.934814
H      -0.650906    1.889995    0.837715
H       0.530082   -0.386265   -0.866997
H       0.525928   -0.333831    0.905236
H      -0.844115   -2.379580   -0.800343
H      -0.912470   -2.330238    0.978730
H      -3.349082   -1.888276    0.884925
H      -3.378647   -0.845948   -1.258826
H      -3.214378   -2.283066   -2.011427
