18

C       0.057080    1.236939   -0.211070
C      -0.452442   -0.183353   -0.445436
O       0.204199   -0.856900   -1.508955
C       1.515285   -1.286608   -1.221125
C       1.989071   -2.152676   -2.400190
O       3.346866   -2.458242   -2.259226
C       1.164188   -3.420038   -2.502121
O       1.687193   -4.509968   -2.491759
H       1.097075    1.248942    0.128183
H      -0.012389    1.824755   -1.131060
H      -0.548187    1.726798    0.558542
H      -0.371620   -0.776448    0.479689
H      -1.509206   -0.159203   -0.729979
H       2.220373   -0.450901   -1.113350
H       1.548437   -1.872957   -0.287977
H       1.799914   -1.573125   -3.321179
H       3.397398   -3.427175   -2.294885
H       0.069439   -3.289738   -2.578265
