24

C       0.153346    1.418182   -0.298204
C       0.169043   -0.091287   -0.049085
C       0.717821   -0.475869    1.326333
C       0.624642   -1.983035    1.580846
O       2.065504   -0.015207    1.373603
C       2.628773    0.094107    2.663460
C       3.937432    0.828887    2.555496
C       5.038226    0.501970    3.495404
N       5.140164    0.134628    2.074358
H       1.159801    1.832252   -0.202179
H      -0.219446    1.648441   -1.300793
H      -0.493061    1.931620    0.422984
H      -0.843867   -0.501260   -0.141187
H       0.781307   -0.590359   -0.810616
H       0.136842    0.055075    2.101863
H       1.005312   -2.253305    2.570109
H      -0.416726   -2.315831    1.526175
H       1.202540   -2.530664    0.829275
H       1.943546    0.639768    3.335243
H       2.802815   -0.898230    3.113569
H       3.848751    1.847845    2.185069
H       5.724521    1.278658    3.819949
H       4.865790   -0.281373    4.230087
H       4.936662   -0.855038    1.952599
