15

N       0.004508    1.363738    0.026493
C       0.035337   -0.012951    0.075131
O       1.095190   -0.617747    0.201969
C      -1.252024   -0.705584    0.016597
C      -2.553626   -0.228596    0.097174
N      -3.358577   -1.299496    0.047619
N      -2.689314   -2.483614   -0.058663
C      -1.407764   -2.126860   -0.077763
N      -0.388630   -3.030805   -0.229988
H       0.906434    1.801494   -0.086534
H      -0.767583    1.822851   -0.428287
H      -2.945956    0.770086    0.212763
H      -4.362168   -1.318528    0.096776
H      -0.605831   -3.975357    0.047424
H       0.507019   -2.668591    0.070723
