16

C      -0.250968    1.617925    0.013968
N      -0.004251    0.191899   -0.001542
C      -1.004764   -0.577840    0.074075
N      -0.909438   -1.956668    0.069417
C       0.263069   -2.684412   -0.015992
C       1.598072   -2.348117   -0.116087
N       2.323317   -3.501950   -0.167262
N       1.536201   -4.528763   -0.106413
N       0.268030   -4.042084   -0.013326
H       0.281340    2.076259    0.855361
H       0.148220    2.072313   -0.900143
H      -1.318019    1.883404    0.094241
H      -2.047348   -0.239734    0.150959
H      -1.774771   -2.465022    0.134868
H       2.038247   -1.369898   -0.151361
H      -0.502837   -4.687149    0.047113
