18

C      -0.031684    1.558914    0.004079
C      -0.045565    0.019073   -0.024978
C      -1.486012   -0.523603    0.000134
C       0.720207   -0.512415   -1.200965
C       1.882994   -1.250042   -1.272377
N       2.743349   -1.697546   -0.306396
O       2.193522   -1.484587   -2.534481
N       1.118638   -0.825992   -3.330394
N       0.342043   -0.309217   -2.501339
H       0.991066    1.945157    0.042524
H      -0.507812    1.958930   -0.896432
H      -0.576162    1.936339    0.875706
H       0.466315   -0.336506    0.880815
H      -2.022904   -0.215746   -0.902160
H      -1.498741   -1.617008    0.039441
H      -2.030045   -0.141044    0.869656
H       2.343790   -1.809134    0.612803
H       3.336539   -2.465001   -0.585004
