17

C      -0.154634    1.585108    0.018630
C       0.034173    0.060631    0.006523
C       0.838073   -0.461169   -1.172741
C       1.816889   -1.288693   -0.800239
C       1.895387   -1.415879    0.684819
C       2.242958   -0.129182    1.410262
C       0.796571   -0.507716    1.210628
H       0.808011    2.103854    0.060540
H      -0.678624    1.922846   -0.881998
H      -0.745270    1.899130    0.885341
H      -0.969143   -0.392009   -0.018795
H       0.624632   -0.158677   -2.192636
H       2.508071   -1.787987   -1.470362
H       2.142051   -2.366162    1.145534
H       2.630013   -0.210528    2.420998
H       2.673694    0.676339    0.824752
H       0.229123   -0.781119    2.092701
