18

C      -0.028004    1.501179    0.196172
C       1.511465    1.561641   -0.142187
C       1.286912    0.259586   -0.913404
C       1.777659   -1.101190   -1.427149
C       0.409621   -0.924532   -2.173837
C      -0.726654   -0.920066   -1.103781
C       0.027985   -0.038789   -0.076187
O       0.699049    0.500705   -2.236449
H      -0.326026    1.815531    1.198326
H      -0.619118    2.037009   -0.546920
H       1.891606    2.411633   -0.712261
H       2.123599    1.415399    0.751544
H       2.605425   -1.050589   -2.135880
H       1.907091   -1.912636   -0.705455
H       0.220905   -1.386024   -3.143747
H      -1.626660   -0.465584   -1.525394
H      -0.984008   -1.909375   -0.714605
H       0.253433   -0.573896    0.850427
