18

O      -0.154193    1.492348   -0.064028
C       0.014906    0.081085   -0.116477
C      -1.381894   -0.532963    0.030801
C      -1.368091   -2.064100   -0.038353
C      -0.862924   -2.747112    1.242610
O      -0.316779   -3.836089    1.195053
C      -1.164914   -2.029784    2.469182
C      -1.711966   -0.787458    2.430246
N      -1.998643   -0.101454    1.287225
H       0.713260    1.904139   -0.023356
H       0.448939   -0.237641   -1.076107
H       0.670154   -0.276174    0.690694
H      -1.993041   -0.133440   -0.786236
H      -2.392910   -2.422456   -0.199201
H      -0.769900   -2.411998   -0.884150
H      -0.974192   -2.517684    3.416160
H      -1.974859   -0.265592    3.346643
H      -2.078734    0.900407    1.376696
