13

O      -0.142640    0.022627   -0.000294
C      -0.011678    1.227935    0.008064
C       1.247553    1.911061   -0.001097
C       2.298816    2.516853   -0.008220
C       3.524231    3.181998   -0.016461
C       4.821688    2.729593   -0.035102
C       5.654581    3.880264   -0.034740
C       4.810437    4.952223   -0.016105
O       3.522083    4.557338   -0.004766
H      -0.887831    1.908012    0.023885
H       5.122609    1.694248   -0.047336
H       6.732299    3.910970   -0.046723
H       4.972409    6.018059   -0.008908
