16

C      -0.034942    1.488722   -0.131510
O       1.314477    1.525162    0.392511
C       1.397232    0.086657    0.453121
C      -0.027616   -0.032676   -0.075726
C      -1.082204   -0.979566    0.388108
O      -2.423660   -0.516997    0.280267
C      -2.620644   -0.310404   -1.050028
N      -1.684657   -0.589152   -1.865165
C      -0.575528   -1.040337   -1.051873
H      -0.748496    1.989009    0.534610
H      -0.102867    1.923843   -1.135635
H       2.182607   -0.311209   -0.203324
H       1.564240   -0.275655    1.476457
H      -0.937603   -1.698508    1.185241
H      -3.596715    0.081310   -1.307702
H       0.063086   -1.811815   -1.467671
