16

O      -0.012884    0.020825   -0.404211
C      -0.058092    1.141650    0.013208
C      -1.353400    1.954829    0.088494
N      -1.446787    2.846936   -1.065264
C      -0.966505    4.009058   -0.987640
O      -0.372204    4.593867    0.100589
C       0.984939    4.237787    0.388276
C       1.150586    2.941597    1.169796
O       1.102757    1.752817    0.379275
H      -2.165459    1.230573    0.025741
H      -1.426928    2.501082    1.036586
H      -1.068408    4.688984   -1.834870
H       1.571341    4.188926   -0.537353
H       1.370930    5.058474    1.000635
H       2.156443    2.936586    1.601351
H       0.432542    2.899834    1.995675
