20

C       0.079763    1.486819    0.077704
C      -0.011186   -0.000691   -0.022877
C      -0.111108   -0.776856   -1.105371
C      -0.037651   -2.226962   -0.685712
C      -0.724693   -3.251824   -1.555829
C       1.429296   -2.511012   -0.201321
C       0.948699   -2.092791    1.174824
C       0.022735   -0.902661    1.167547
N      -0.500252   -2.232201    0.792430
H       1.032295    1.797736    0.525059
H      -0.003740    1.959680   -0.904159
H      -0.712996    1.890527    0.720155
H      -0.093730   -0.452237   -2.139395
H      -0.272739   -3.278867   -2.553698
H      -0.645598   -4.250411   -1.116113
H      -1.787122   -3.012176   -1.666519
H       1.641883   -3.583410   -0.213707
H       2.249647   -1.966675   -0.678786
H       1.328881   -2.486262    2.113589
H      -0.299644   -0.535305    2.138809
