17

C      -0.128494    1.696045    0.229488
C       0.000248    0.191475    0.047794
C       1.236066   -0.344750   -0.710596
O       1.605050   -1.203185    0.390460
C       0.554674   -0.696253    1.214040
C       1.065097    0.040984    2.436313
O       2.216886    0.343945    2.632476
C       0.011046    0.438313    3.477615
O      -1.170601    0.270455    3.318218
H       0.795705    2.135266    0.620171
H      -0.341196    2.174649   -0.732132
H      -0.946287    1.945388    0.912311
H      -0.935004   -0.223414   -0.333381
H       1.039301   -0.915400   -1.624813
H       2.009383    0.407304   -0.912229
H      -0.136290   -1.481689    1.546002
H       0.448224    0.914625    4.380680
