18

O       0.071340   -0.118615   -0.305046
C       0.010512    1.090949   -0.140164
C      -1.354642    1.720669    0.151793
C      -1.470874    2.790232    1.222229
C      -0.553588    2.855887    2.425780
C      -0.531249    3.947355    1.372384
N       0.602471    4.176760    0.515443
C       1.396634    3.239351   -0.072037
C       1.190731    1.924633   -0.334514
H      -1.718127    2.139442   -0.798144
H      -2.014882    0.884935    0.400703
H      -2.507870    3.052461    1.418669
H      -0.965761    3.083599    3.402401
H       0.288862    2.173290    2.439865
H      -0.985475    4.895503    1.639662
H       1.069735    5.048284    0.705843
H       2.357137    3.654584   -0.368393
H       2.029424    1.386416   -0.762116
