20

C       0.353702    1.369556   -0.040338
C       0.041303   -0.095131   -0.043154
C      -0.113395   -0.884016   -1.111471
C      -0.456357   -2.314546   -0.764627
C      -0.279288   -2.344713    0.765862
C       1.161504   -2.603004    1.302184
C       1.144156   -1.226930    2.024745
C      -0.156179   -0.860661    1.245170
H       1.270739    1.581582    0.523757
H       0.482028    1.759797   -1.053755
H      -0.446948    1.942420    0.445670
H      -0.023800   -0.541988   -2.138459
H      -1.480300   -2.565802   -1.076091
H       0.200018   -3.039732   -1.264802
H      -1.036460   -2.941620    1.277654
H       1.290282   -3.480626    1.940302
H       1.900401   -2.654727    0.497429
H       0.971281   -1.316252    3.100862
H       2.010142   -0.576957    1.870046
H      -0.961113   -0.433694    1.855146
