14

O       0.069072    1.345328    0.080338
C       0.061240   -0.000582    0.057268
N       0.096827   -0.591584   -1.132517
C       0.089451   -1.923992   -1.167060
C       0.046509   -2.733645   -0.025478
C       0.009516   -2.076465    1.219404
C       0.016616   -0.697511    1.271138
C       0.040878   -4.151157   -0.128837
C       0.036166   -5.352268   -0.218820
H       0.101477    1.628392   -0.844571
H       0.119083   -2.382845   -2.151118
H      -0.024397   -2.661722    2.131351
H      -0.010881   -0.153953    2.207014
H       0.031994   -6.411009   -0.298554
