20

C      -0.347763    1.362451    0.309552
N      -0.016343   -0.027114    0.036851
C       0.487075   -0.440035   -1.276600
C       0.753075    0.551759   -2.407867
C       2.209449    1.060869   -2.442793
C       2.652888    1.550992   -1.077031
O       3.086414    2.662507   -0.881016
C       2.540772    0.517662    0.041021
C       1.373766   -0.455779   -0.064824
H       0.323486    2.116712   -0.125847
H      -1.359791    1.561418   -0.057607
H      -0.352240    1.511352    1.393902
H       0.063120   -1.387446   -1.603686
H       0.523543    0.068138   -3.361494
H       0.071542    1.406634   -2.331804
H       2.866589    0.227750   -2.727903
H       2.341876    1.865835   -3.169078
H       3.467442   -0.072234   -0.005674
H       2.557697    1.042219    1.001660
H       1.561292   -1.409439    0.426874
