20

C      -0.056875    1.592332    0.071500
C       0.029139    0.091305    0.066584
C      -1.225975   -0.809182   -0.155964
C      -0.459852   -1.883443    0.612493
C       0.425666   -0.887747    1.254326
N       1.004905   -1.819510    0.243225
C       1.080029   -0.694052   -0.716277
C       1.355216   -0.832093   -2.175358
C       2.399591   -0.240340   -1.234429
H       0.906938    2.045978    0.326339
H      -0.354561    1.968947   -0.914507
H      -0.797498    1.946530    0.796225
H      -2.085348   -0.458098    0.422733
H      -1.524104   -1.005053   -1.191555
H      -0.811720   -2.834267    0.990549
H       0.814945   -0.757451    2.255652
H       1.535185   -1.830403   -2.559848
H       0.853401   -0.163689   -2.868575
H       2.597187    0.824972   -1.299438
H       3.264969   -0.849424   -0.996281
