17

O      -0.258202    1.422254    0.169450
C      -0.091937    0.055769   -0.171376
C      -1.331161   -0.673829    0.329291
C      -1.289401   -2.151946    0.033490
O      -0.388649   -2.733307   -0.515141
O      -2.422329   -2.757020    0.478470
C      -2.534493   -4.166891    0.274202
C      -3.707224   -4.458544   -0.644832
O      -4.247337   -5.529418   -0.706875
H       0.516508    1.903233   -0.135192
H       0.007553   -0.086593   -1.256989
H       0.804715   -0.377034    0.294438
H      -1.443977   -0.533679    1.410191
H      -2.233662   -0.246616   -0.121480
H      -1.614057   -4.549185   -0.181251
H      -2.688252   -4.652586    1.241312
H      -4.017576   -3.592356   -1.271637
