19

C      -0.023508    1.633077   -0.055957
C       0.036685    0.111440   -0.004832
C       0.713610   -0.650193   -1.169448
N       2.120253   -0.203286   -1.197204
C       1.710969   -1.295563   -0.247970
C       2.374919   -2.635512   -0.237169
C       1.071201   -0.578126    0.898357
N       1.260471   -0.719754    2.141573
O       0.357280    0.070475    2.883943
H       0.952897    2.041297   -0.326287
H      -0.757266    1.966795   -0.797665
H      -0.313267    2.033838    0.918692
H      -0.949731   -0.313483    0.216289
H       0.234622   -1.064779   -2.048202
H       2.570405   -0.673627   -1.983895
H       2.495164   -3.020662   -1.255385
H       3.366690   -2.578353    0.223972
H       1.783080   -3.355719    0.335808
H       0.615274   -0.127450    3.790298
