13

C       0.026240    1.446431    0.061136
N       0.025423   -0.004029    0.044739
C      -0.023777   -0.750062   -1.110108
O      -0.072702   -0.399270   -2.253498
O      -0.006041   -2.087298   -0.698672
C       0.051857   -2.123493    0.656009
C       0.072731   -0.867963    1.148749
C       0.129656   -0.424857    2.486273
N       0.175847   -0.039250    3.577702
H       0.938347    1.829828    0.527110
H      -0.018647    1.775265   -0.977540
H      -0.842182    1.829870    0.604133
H       0.072641   -3.085818    1.136775
