17

C      -0.142315    1.558746    0.203901
C      -0.059795    0.106852    0.174293
C      -0.003708   -1.096065    0.149016
C       0.127098   -2.531964    0.089281
C       1.447571   -3.047778   -0.461573
C       1.667398   -2.622839   -1.904056
O       2.727864   -2.271645   -2.350244
C      -0.679851   -3.384755    0.986295
O      -1.032851   -3.252190   -0.386049
H       0.749572    2.012702   -0.240779
H      -1.012913    1.912850   -0.358592
H      -0.233070    1.931499    1.229870
H       2.294311   -2.707538    0.140608
H       1.424543   -4.145222   -0.443065
H       0.758712   -2.682270   -2.542284
H      -0.289512   -4.357547    1.284301
H      -1.359638   -2.913137    1.692932
