20

C       0.058674    1.378573    0.074077
N      -0.001422   -0.068650    0.061217
C      -1.133573   -0.637110    0.016390
C      -2.575771   -0.128009   -0.036187
N      -3.429185   -1.317911   -0.084080
C      -2.639170   -2.328189   -0.056798
C      -3.095177   -3.749991   -0.087532
N      -1.280175   -2.026271    0.006212
C      -0.169018   -2.951985    0.041285
H       0.782671    1.720343   -0.674746
H      -0.897279    1.884367   -0.125424
H       0.426028    1.728678    1.047658
H      -2.816955    0.482697    0.842291
H      -2.747820    0.505312   -0.914938
H      -4.183632   -3.769049   -0.137375
H      -2.686014   -4.278627   -0.955375
H      -2.766747   -4.290347    0.807025
H      -0.216083   -3.604729    0.919860
H      -0.135097   -3.576401   -0.858421
H       0.741165   -2.352178    0.091833
