16

N       0.096009    1.263422    0.055666
C      -0.319221   -0.003456    0.419477
O      -0.437134   -0.344805    1.580430
N      -0.535497   -0.831690   -0.672039
C      -0.940502   -2.170400   -0.709820
N      -0.962380   -2.712631   -1.858890
C      -1.321956   -2.819021    0.618282
C      -1.763117   -4.197118    0.461198
C      -2.125472   -5.335437    0.330215
H       0.085904    1.920044    0.820248
H      -0.177943    1.641619   -0.837475
H      -0.288153   -0.495842   -1.592398
H      -1.280406   -3.678180   -1.784741
H      -0.470581   -2.754277    1.302905
H      -2.098016   -2.214943    1.100630
H      -2.447247   -6.342543    0.229694
