18

C      -0.030873    1.383101    0.060697
C       0.197823   -0.109966    0.066933
C       1.576200   -0.689725    0.065913
C       0.724037   -0.796284    1.323589
O       0.995765    0.034870    2.421425
C       2.143882   -0.210498    3.104130
N       2.415534    0.473556    4.125993
C       0.135186   -2.118788    1.670300
O      -0.135756   -2.967814    0.856057
H       0.721530    1.905364    0.655542
H       0.013392    1.764634   -0.964547
H      -1.013888    1.631884    0.471766
H      -0.551252   -0.707775   -0.444487
H       1.754493   -1.617698   -0.465714
H       2.412723   -0.000869    0.120370
H       2.744683   -1.016756    2.664867
H       3.304617    0.173450    4.520520
H      -0.049986   -2.259034    2.757786
