16

O      -0.213288    0.395830    1.946525
C       0.037838   -0.030846    0.654512
C      -0.575823   -1.268820    0.076403
C      -1.002113    0.101835   -0.458664
C      -2.335177    0.625937   -0.133682
C      -3.234649    1.330460   -0.903411
N      -4.275107    1.563098   -0.065634
N      -4.061826    1.050085    1.151324
N      -2.889498    0.481394    1.112286
H      -1.173279    0.355611    2.097461
H       1.062053    0.196950    0.375079
H       0.013476   -1.905478   -0.575089
H      -1.306259   -1.786722    0.689148
H      -0.640271    0.379759   -1.443009
H      -3.220513    1.667673   -1.925472
H      -5.140997    2.044522   -0.249276
