17

C       0.047620    1.348064    0.521788
C      -0.067512   -0.093326    0.066144
C      -1.384924   -0.678875   -0.272946
N      -0.396341   -0.408300   -1.336116
C       1.389024    1.953715    0.219461
C       2.157855    2.766679    0.992062
O       3.291087    3.104459    0.359689
N       3.304734    2.496264   -0.890936
C       2.183514    1.824197   -0.960485
H      -0.751641    1.930666    0.040973
H      -0.140505    1.409419    1.600484
H       0.692819   -0.754284    0.477938
H      -1.580805   -1.730506   -0.085986
H      -2.260137   -0.037294   -0.203549
H      -0.660946    0.444661   -1.825306
H       2.032815    3.175674    1.983152
H       1.971513    1.245544   -1.848796
