16

O      -0.031230    1.338462   -0.101528
C      -0.033728   -0.054014   -0.051399
C      -0.423485   -0.706264    1.255923
O      -0.805896    0.171288    2.287140
C      -1.370877   -0.765872    0.085933
C      -2.690145    0.005266    0.046512
O      -3.559859   -0.894465   -0.688480
C      -2.807929   -1.985052   -0.961847
N      -1.597557   -2.029774   -0.577569
H      -0.273005    1.640945    0.785623
H       0.727431   -0.510355   -0.675799
H       0.049597   -1.634283    1.566385
H      -0.043276    0.306999    2.860372
H      -3.127811    0.185577    1.031948
H      -2.612262    0.949941   -0.498634
H      -3.323516   -2.763709   -1.511713
