17

C      -0.136345    1.370826    0.049812
N      -0.063485   -0.080029    0.147261
C      -1.109396   -0.750719    0.017583
O      -2.433975   -0.332577   -0.196434
C      -2.893426   -1.706851   -0.020455
C      -4.130907   -1.912772    0.784060
C      -2.333735   -2.531905   -1.124245
C      -1.462005   -2.195040    0.095297
H       0.438473    1.700726   -0.823016
H      -1.156351    1.763588   -0.034434
H       0.341704    1.811949    0.931018
H      -4.999695   -1.488551    0.269005
H      -4.313283   -2.980971    0.930881
H      -4.044672   -1.432935    1.763338
H      -2.660266   -3.567273   -1.156699
H      -2.120591   -2.081869   -2.088777
H      -1.000941   -2.945129    0.721045
