17

C       0.123053    1.340003    0.007196
O      -0.041363   -0.057531   -0.029394
C       0.744533   -0.674923   -1.026633
C       0.472115   -2.174909   -0.982504
C      -0.996859   -2.525670   -1.282658
C       1.390031   -2.936169   -1.913693
O       2.233599   -2.439728   -2.617099
H       1.166808    1.622811    0.216086
H      -0.174624    1.811409   -0.942758
H      -0.514189    1.724134    0.807459
H       0.497348   -0.274754   -2.023947
H       1.814653   -0.477789   -0.861400
H       0.698447   -2.536610    0.032889
H      -1.172916   -3.603412   -1.208299
H      -1.647591   -2.016250   -0.570103
H      -1.276129   -2.204249   -2.291928
H       1.223075   -4.038941   -1.913818
