17

C      -0.028713    1.500936   -0.018214
C      -0.008239   -0.003440    0.015970
N      -0.022814   -0.636357   -1.162368
C      -0.004814   -1.969562   -1.132645
N       0.026324   -2.748331   -0.054441
C       0.040745   -2.106351    1.118886
C       0.024601   -0.719161    1.222866
C       0.041008   -0.018812    2.557170
O       0.078176   -0.981263    3.592936
H       0.857255    1.922563    0.471491
H      -0.055345    1.840298   -1.053916
H      -0.903393    1.899642    0.509464
H      -0.016882   -2.472491   -2.097145
H       0.066294   -2.716028    2.015526
H       0.914172    0.653845    2.606067
H      -0.851009    0.624926    2.642739
H       0.089757   -0.518190    4.434887
