21

C       0.027927    1.352368   -0.276693
O      -0.063525    0.107132    0.377393
C      -1.309775   -0.518991    0.216265
C      -1.568582   -1.357171   -1.051499
C      -0.655830   -2.526064   -0.543772
C      -1.761548   -3.575806   -0.767786
C      -2.512437   -2.328165   -0.262086
C      -1.362698   -1.955382    0.749254
C      -1.188637   -2.424164    2.166609
H       1.015312    1.766050   -0.057039
H      -0.080281    1.255947   -1.367518
H      -0.739059    2.056708    0.082722
H      -2.126808    0.154340    0.526964
H      -1.699732   -1.046784   -2.088864
H       0.419380   -2.612445   -0.696286
H      -1.952287   -3.876765   -1.803041
H      -1.757974   -4.452685   -0.112125
H      -3.581361   -2.184622   -0.093381
H      -1.251497   -3.515527    2.237338
H      -0.213354   -2.114941    2.556525
H      -1.959959   -2.000683    2.819852
