21

C      -0.005977    1.519099    0.007401
C       1.297474    0.755286   -0.015595
C      -0.009698    0.009941    0.025299
C      -0.443863   -0.794862    1.261238
C      -1.527512   -1.728507    0.704145
C      -2.690312   -0.912753    0.043482
C      -1.985236   -1.073467   -1.303304
C      -1.043068   -2.116653   -0.726315
C      -0.493127   -0.789454   -1.164686
H      -0.272324    2.046343    0.918234
H      -0.321670    2.018401   -0.903300
H       1.869648    0.744255   -0.938238
H       1.908074    0.760286    0.882152
H       0.396451   -1.382297    1.653092
H      -0.814779   -0.159678    2.073131
H      -1.831407   -2.527515    1.380280
H      -3.631880   -1.467767    0.067608
H      -2.864228    0.102232    0.419013
H      -2.460753   -1.057626   -2.277615
H      -0.743526   -3.088478   -1.095565
H       0.057513   -0.733755   -2.098012
