22

C       0.315946    1.483998   -0.248261
C      -0.117365    0.091775    0.225283
C       0.719471   -0.559011    1.311308
C       0.060166   -1.499740    2.260247
N       0.530562   -0.188208    2.748797
C       1.970420   -0.164328    3.181944
C       2.715662   -1.334668    2.477659
C       2.261244   -0.563109    1.211345
C       2.570152    0.729312    2.059612
H       1.345816    1.489915   -0.618708
H      -0.329437    1.821251   -1.065440
H       0.241422    2.218941    0.558408
H      -1.152132    0.142435    0.581832
H      -0.126932   -0.591876   -0.635436
H      -1.024044   -1.569354    2.218026
H       0.534448   -2.413359    2.596283
H       2.080896    0.053576    4.243777
H       3.793408   -1.254752    2.628921
H       2.415096   -2.371052    2.629489
H       2.704307   -0.741663    0.231402
H       2.029517    1.646048    1.826945
H       3.638820    0.923172    2.173793
