19

O       0.087279    1.354756    0.339923
C       0.121806   -0.023635    0.021148
C      -1.298949   -0.582884   -0.049599
C      -1.671893   -2.096643   -0.152030
C      -0.803165   -3.099419    0.662631
C      -1.770065   -2.983069    1.878352
C      -2.634441   -1.948991    1.092173
C      -2.099334   -0.523264    1.254412
O      -2.164753    0.305700    2.124710
H      -0.448257    1.443707    1.139812
H       0.629294   -0.115970   -0.945123
H       0.715613   -0.588718    0.756747
H      -1.853752   -0.022452   -0.814297
H      -2.019208   -2.431442   -1.128316
H      -0.783787   -4.098768    0.222943
H       0.230456   -2.796884    0.844725
H      -2.314016   -3.906464    2.086441
H      -1.346239   -2.618246    2.816889
H      -3.716263   -2.084628    1.074778
