17

C      -0.019292   -1.184260   -0.047024
C      -0.018898    0.018855   -0.024364
C      -0.002761    1.462898    0.019897
C      -0.114269    2.098198    1.457995
C       1.421957    1.921431    1.583711
C       1.427660    2.124261    0.045574
O       1.269564    3.496302   -0.298397
C       0.578828    4.213671    0.705572
O      -0.468276    3.466927    1.293482
H      -0.029743   -2.245741   -0.078107
H      -0.681054    1.906880   -0.712397
H      -0.794918    1.661391    2.188393
H       1.993993    2.597083    2.220666
H       1.665154    0.887563    1.830130
H       2.222617    1.712397   -0.575697
H       1.286373    4.536997    1.483961
H       0.131545    5.091241    0.233471
