19

O       0.254089    0.290591   -0.770197
C       0.032161    1.278045   -0.147578
C      -1.178822    2.122893    0.250413
C      -0.129879    2.990224    0.974644
O       0.933888    2.076630    0.507533
C       0.089377    4.402254    0.500161
C      -0.900623    5.498752    0.993748
C       0.306484    6.465265    1.138699
C       1.249473    5.231883    1.120769
H      -1.691335    2.595906   -0.589641
H      -1.904332    1.601746    0.876745
H      -0.180681    2.940562    2.067089
H       0.157756    4.407204   -0.593516
H      -1.714647    5.785466    0.324205
H      -1.328730    5.239807    1.968077
H       0.434481    7.087393    0.248623
H       0.332578    7.111232    2.018649
H       1.486336    4.887094    2.132474
H       2.178709    5.299374    0.552329
