17

C       0.003583    1.571152   -0.029096
C       0.000272    0.072736    0.037343
C       1.170886   -0.808706   -0.372582
C       0.601630   -0.924633    1.012124
C       1.341093   -0.828075    2.305818
O      -0.563346   -1.766053    0.975709
C      -1.237576   -0.816419    0.108754
H       0.990308    1.975165    0.219820
H      -0.249075    1.928104   -1.035136
H      -0.720533    2.005730    0.669511
H       1.037939   -1.624592   -1.079150
H       2.119713   -0.284926   -0.449396
H       2.148713   -0.093756    2.233460
H       0.671898   -0.534915    3.120869
H       1.788258   -1.794602    2.565284
H      -2.080681   -0.348282    0.632425
H      -1.593505   -1.278125   -0.820900
