17

C       0.003647    1.455419   -0.008550
C       0.000534    0.000224   -0.000061
C       0.009575   -1.204520    0.011341
C       0.004645   -2.637013    0.021240
C      -0.459294   -3.408790   -1.209505
C      -1.282620   -3.523459    0.033888
N      -0.922220   -4.610599    0.904775
C       0.371816   -4.362508    1.338099
N       0.954745   -3.317161    0.877867
H       0.906208    1.845703    0.474809
H      -0.020582    1.851802   -1.029932
H      -0.860222    1.864470    0.527834
H      -0.872589   -2.808055   -2.010949
H       0.136363   -4.261563   -1.519227
H      -2.294122   -3.142272    0.089663
H      -1.602531   -4.979966    1.551892
H       0.852674   -5.068513    2.007432
