17

C       0.230851    1.625945    0.115798
C      -0.025855    0.156604    0.150375
C      -1.338434   -0.596163   -0.131012
C      -0.840030   -1.756763    0.820817
O      -1.611740   -1.898327    1.970628
C      -0.608404   -3.099520    0.172101
O      -1.102990   -4.106877    0.625008
C       0.458789   -0.921007    1.028942
O       1.030866   -0.729832   -0.269197
H       1.231410    1.846338    0.496865
H       0.163631    2.007663   -0.909120
H      -0.504888    2.160551    0.724436
H      -2.216250   -0.138052    0.328640
H      -1.535211   -0.830180   -1.180694
H      -1.808323   -2.848596    2.030984
H       0.037625   -3.107161   -0.723114
H       1.113605   -0.924321    1.893511
