16

C      -0.040170    1.656471   -0.019313
C      -0.051624    0.136034   -0.021533
C       0.760255   -0.573220   -1.122166
O       1.699320   -1.084496   -0.116846
C       0.985910   -0.542001    0.912597
O       1.186079   -0.631093    2.081505
O      -1.368153   -0.388289    0.055305
C      -1.992902   -0.337250    1.263885
N      -3.216747   -0.628292    1.325749
H       0.974600    2.040220   -0.158151
H      -0.676541    2.029869   -0.826750
H      -0.421835    2.040833    0.930642
H       0.229756   -1.389436   -1.612581
H       1.274210    0.065914   -1.841245
H      -1.331474   -0.065416    2.092456
H      -3.535831   -0.578928    2.291405
