19

N       0.054605    1.245617   -0.658901
C       0.046376   -0.054586   -0.113654
C      -0.882420   -1.048359   -0.335353
N      -0.541449   -2.141341    0.447372
C       0.582649   -1.834707    1.167019
C       0.977404   -0.557067    0.842990
C      -1.344043   -3.312354    0.610967
C      -1.627730   -4.178268   -0.589369
C      -0.694079   -4.664921    0.491023
H       0.995621    1.581684   -0.822319
H      -0.460582    1.301145   -1.528498
H      -1.749486   -1.080394   -0.974865
H       1.005551   -2.552297    1.851560
H       1.838938   -0.037242    1.234796
H      -2.143636   -3.214702    1.342499
H      -2.612097   -4.624757   -0.669824
H      -1.185071   -3.875971   -1.530932
H       0.364415   -4.687098    0.261091
H      -1.030929   -5.448269    1.160079
