15

O       0.191447    0.116783    0.492254
C       0.178092    1.193000   -0.012762
O      -0.951562    2.016887   -0.000221
C      -0.742785    3.153229   -0.849931
C       0.354355    4.268467   -0.754662
C       1.508206    4.312961    0.250078
C       1.843512    2.835985    0.366635
C       1.216456    2.119118   -0.588422
C       0.526182    3.022616   -1.589529
H      -1.678591    3.455627   -1.304036
H       0.030541    5.197336   -1.216676
H       2.320476    4.962111   -0.106525
H       1.221895    4.685391    1.241570
H       2.212933    2.403648    1.291115
H       0.666575    2.935194   -2.660676
