18

C      -0.063081    1.426351    0.355895
C      -0.126749   -0.097557    0.248544
O      -0.325750   -0.701567    1.514065
C      -1.201250   -0.540554   -0.780283
C      -1.384964   -2.037357   -0.780904
O      -0.832940   -2.796374   -1.544830
C      -2.354627   -2.602399    0.289644
N      -2.545046   -3.926566    0.158748
O      -2.875482   -1.885798    1.132360
H       0.702798    1.710417    1.082417
H       0.181326    1.886808   -0.607472
H      -1.023005    1.829573    0.697151
H       0.842456   -0.471965   -0.105619
H      -1.278466   -0.763610    1.679677
H      -2.153169   -0.064271   -0.524401
H      -0.896081   -0.231508   -1.782924
H      -2.018029   -4.417994   -0.546210
H      -3.115889   -4.424020    0.821159
