23

C      -0.268581    1.680251    0.382367
O      -0.046125    0.292078    0.491731
C      -1.064508   -0.536197   -0.037826
C      -2.383841   -0.401960    0.719484
C      -1.232432   -0.509534   -1.597484
C      -1.093692   -2.036855   -1.581572
C      -2.101999   -3.010328   -2.122041
C      -0.704010   -2.951325   -2.700219
C      -0.564895   -2.003279   -0.143121
H       0.652052    2.174516    0.703168
H      -0.484621    1.983049   -0.653259
H      -1.090453    2.030925    1.022561
H      -2.830994    0.588696    0.590059
H      -3.105441   -1.138631    0.354132
H      -2.224372   -0.574770    1.788806
H      -2.161624   -0.092064   -1.996472
H      -0.379163   -0.017698   -2.074866
H      -2.365811   -3.868997   -1.512001
H      -2.918762   -2.623691   -2.724029
H      -0.579284   -2.525429   -3.691057
H      -0.025293   -3.769564   -2.480103
H       0.526885   -2.032665   -0.090541
H      -0.983195   -2.718751    0.570774
