21

C       0.041905    1.559333    0.105488
C       0.035440    0.066845   -0.014012
C      -0.031523   -0.690329   -1.118093
C      -0.119152   -0.261839   -2.550070
C      -0.088954   -2.170240   -0.778542
O       0.734329   -2.990747   -1.602443
C       0.259514   -2.216397    0.724531
C       0.033877   -0.781378    1.246640
O       0.967166   -0.358082    2.236403
H       0.826063    1.886047    0.796197
H       0.190286    2.057436   -0.855365
H      -0.906232    1.919322    0.527049
H      -1.117566   -0.470335   -2.957461
H       0.079458    0.804122   -2.682894
H       0.585809   -0.830605   -3.165099
H      -1.099933   -2.559270   -0.959455
H       1.643103   -2.689244   -1.490626
H      -0.296157   -2.975679    1.278945
H       1.324778   -2.460696    0.827462
H      -0.935209   -0.696746    1.756406
H       1.845179   -0.404264    1.841132
