21

C      -0.163560    1.574325   -0.026712
C       0.020190    0.051844   -0.031678
C       0.872291   -0.475116   -1.231723
C       2.181966   -0.895755   -0.577726
O       2.760272    0.293974    0.060873
C       2.253134   -0.158963    1.325703
C       2.963841    0.295589    2.556854
C       1.826119   -1.496042    0.798872
C       0.771148   -0.478178    1.196805
H       0.807959    2.075273   -0.043987
H      -0.735393    1.905231   -0.900541
H      -0.705469    1.902852    0.867049
H      -0.970405   -0.416971   -0.056912
H       0.396545   -1.337187   -1.713769
H       1.037084    0.290766   -1.995746
H       2.913220   -1.402353   -1.210424
H       2.883658    1.382562    2.670208
H       2.527124   -0.171105    3.444647
H       4.026133    0.035132    2.511768
H       1.948157   -2.508097    1.159920
H       0.233555   -0.626893    2.128109
