20

C      -0.153982    1.487709    0.062098
C       0.055478   -0.029522    0.012665
N       0.696297   -0.499298   -1.201757
C       0.090139   -0.457576   -2.514402
C       1.212364   -1.072993   -3.376504
C       1.409421   -0.431417   -4.736307
O       2.401077   -0.905500   -2.580965
C       2.061333   -0.637365   -1.283409
O       2.863532   -0.549965   -0.391809
H       0.805334    2.008865   -0.004386
H      -0.795808    1.837403   -0.753015
H      -0.632026    1.769951    1.005183
H       0.701372   -0.344216    0.835899
H      -0.903635   -0.550414    0.121460
H      -0.833221   -1.045378   -2.558779
H      -0.144998    0.569122   -2.834452
H       1.044755   -2.152127   -3.487268
H       1.604642    0.639868   -4.630733
H       2.254359   -0.887955   -5.257921
H       0.512758   -0.564928   -5.350452
