19

C       0.133898    1.452625   -0.465228
N       0.331050    0.066016   -0.080806
H      -0.071650   -0.701884   -0.657198
C       0.739526   -0.529547    1.022533
N       1.367658    0.046344    2.040721
C       1.922593    1.400666    2.010234
C       1.568934   -0.628676    3.330822
C       0.406661   -2.135261    0.891300
O      -0.164711   -2.351724   -0.189480
O       0.764682   -2.858766    1.814590
H       1.017317    1.884957   -0.948130
H      -0.686632    1.483500   -1.185588
H      -0.144234    2.072711    0.389162
H       2.124731    1.721096    0.991399
H       1.260923    2.123633    2.500861
H       2.870972    1.388668    2.554676
H       2.642177   -0.708684    3.534787
H       1.110070   -0.020215    4.118819
H       1.133085   -1.623338    3.282994
