23

C      -0.405079    1.397629   -0.025632
C       0.220591   -0.001233   -0.175912
C       0.853277   -0.485981    1.047096
C       1.362605   -0.874053    2.069589
C       2.001279   -1.327172    3.279947
C       3.296273   -0.605806    3.648863
C       3.103051    0.887912    3.924723
C       1.106375   -1.802116    4.417148
C       1.888064   -2.806295    3.618614
H       0.354362    2.134759    0.249510
H      -0.867602    1.713832   -0.965698
H      -1.171711    1.398382    0.754008
H      -0.552546   -0.714462   -0.490626
H       0.958602    0.014791   -0.988688
H       3.723228   -1.094565    4.533217
H       4.020806   -0.741868    2.836763
H       4.055556    1.368067    4.169318
H       2.681821    1.392270    3.050014
H       2.418146    1.048365    4.764099
H       1.435400   -1.579606    5.426937
H       0.034327   -1.751689    4.269494
H       1.349002   -3.438656    2.923399
H       2.751686   -3.273569    4.080216
