20

O       0.250235    0.499328   -1.189516
C       0.042634   -0.398157   -0.132528
C       0.216708    0.091996    1.332157
C      -1.049537   -0.724497    1.713708
O      -1.988485   -0.170125    2.595145
C      -1.428613   -0.805948    0.200113
N      -2.326917    0.289181   -0.138038
C      -3.008990    0.187338   -1.430820
C      -3.755612   -0.034754   -0.166369
H      -0.389246    1.211227   -1.066717
H       0.658087   -1.276276   -0.344745
H       1.153181   -0.133111    1.846426
H       0.019666    1.166279    1.405272
H      -0.794563   -1.710444    2.110983
H      -2.304682    0.639455    2.176368
H      -1.786094   -1.774354   -0.182461
H      -3.124304    1.117440   -1.979282
H      -2.784924   -0.680087   -2.046832
H      -4.041613   -1.053960    0.081600
H      -4.421933    0.731429    0.218550
