19

C       0.425329    1.566955    0.080032
C       1.414689    0.416659   -0.082145
C      -0.042166    0.151775    0.087414
C      -0.792874   -0.643256    1.146762
C      -1.605410   -1.173348   -0.050229
C      -1.797120   -2.669700   -0.353497
O      -3.230557   -2.543097   -0.248977
C      -3.140530   -1.107756   -0.133280
O      -0.839906   -0.384522   -0.975313
H       0.418847    2.122685    1.012350
H       0.200493    2.155925   -0.802737
H       1.832993    0.257869   -1.070339
H       2.085425    0.185011    0.739163
H      -0.206604   -1.397407    1.676849
H      -1.363726   -0.052055    1.866525
H      -1.471541   -2.944673   -1.365107
H      -1.388201   -3.382165    0.373226
H      -3.671759   -0.727137    0.747556
H      -3.496937   -0.589806   -1.033096
