14

N       0.024806    1.339515    0.142409
C      -0.004810   -0.034922    0.058244
N      -1.164542   -0.646873    0.048320
C      -1.161235   -2.015428    0.039429
O      -2.165574   -2.710479    0.013966
C       0.187595   -2.685844    0.035097
N       0.142223   -4.037966    0.065823
N       1.315914   -2.043969    0.016741
N       1.179535   -0.675156    0.029985
H       0.783364    1.819246   -0.318689
H      -0.883059    1.746708   -0.029957
H      -0.773662   -4.428476   -0.097331
H       0.966739   -4.572432   -0.146620
H       2.052857   -0.182593    0.117876
