17

O       0.024988   -0.060524    0.003982
C      -0.055745    1.131557    0.057312
C      -1.312700    1.990841    0.134698
C      -0.798835    3.390353    0.492320
C      -0.757119    3.702668    1.971375
C       0.467148    4.006695    2.397199
C       1.485586    3.975295    1.283590
C       0.712811    3.333554    0.115725
O       1.042415    1.934729    0.033321
H      -1.801141    1.961808   -0.845224
H      -2.009347    1.565031    0.859068
H      -1.332351    4.168928   -0.063221
H      -1.650368    3.678380    2.585972
H       0.726499    4.271181    3.416074
H       1.828571    4.985716    1.025584
H       2.378138    3.387232    1.520460
H       0.946068    3.782918   -0.853149
