15

C      -0.051956    1.420934    0.008473
N      -0.069771   -0.029955    0.045930
N      -0.408377   -0.768827   -1.013494
N      -0.314970   -2.010579   -0.624993
C       0.082101   -1.981172    0.672718
N       0.242596   -0.732167    1.115400
C       0.311500   -3.199506    1.505398
C       0.073190   -4.523091    0.814400
O       0.665439   -3.100083    2.656873
H       0.954713    1.779941    0.230016
H      -0.351266    1.722931   -0.994018
H      -0.750299    1.814393    0.749348
H       0.718946   -4.614863   -0.064798
H       0.271178   -5.333117    1.516414
H      -0.956524   -4.580635    0.447275
