18

C      -0.220510    1.538700    0.015782
C       0.021833    0.042299    0.036685
C       1.356883   -0.613428   -0.232002
C       2.610299    0.220896   -0.050723
O       2.504685    0.845648    1.234171
C       1.665463    0.051605    2.065448
C       0.992288    0.930285    3.036198
N       0.448879    1.578120    3.822916
C       0.726532   -0.713704    1.140882
H       0.629283    2.104425    0.400315
H      -0.417101    1.872621   -1.008705
H      -1.094505    1.794462    0.622631
H      -0.810760   -0.527220   -0.370405
H       1.414727   -1.473521   -0.889063
H       3.502153   -0.421299   -0.095765
H       2.728934    1.027664   -0.781132
H       2.262416   -0.672245    2.644176
H       0.305925   -1.636188    1.522213
