20

C      -0.476473    1.232226   -0.217239
C      -0.138929   -0.258068   -0.231092
C      -1.372042   -1.147656   -0.319841
O      -2.507409   -0.765860   -0.203555
N       0.809321   -0.650835   -1.275257
C       0.444886   -0.383542   -2.660483
C       2.062205   -1.081889   -0.890926
C       3.056937   -1.383629   -2.000631
O       2.362359   -1.224339    0.282612
H       0.427789    1.824452   -0.056137
H      -0.945832    1.550841   -1.152412
H      -1.184655    1.440448    0.587534
H       0.362698   -0.533174    0.706230
H      -1.130354   -2.219981   -0.502773
H       0.754219    0.615254   -2.995855
H       0.884391   -1.123516   -3.330416
H      -0.641317   -0.448816   -2.768213
H       3.206904   -0.525216   -2.662364
H       4.002821   -1.646799   -1.529179
H       2.723444   -2.223630   -2.618815
