21

C      -0.050304    1.578997    0.118714
C      -0.026153    0.062934    0.087004
C      -1.260329   -0.566718   -0.527851
O      -1.390210   -0.077226   -1.857907
C       1.240511   -0.704111   -0.210432
O       2.399849    0.000853    0.233001
C       1.934032   -0.087727    1.604397
C       0.636620   -0.781708    1.180497
C      -0.004908   -1.863638    2.005604
H       0.953018    1.984650    0.260623
H      -0.435756    1.957631   -0.830959
H      -0.696388    1.951435    0.922563
H      -1.171046   -1.663598   -0.530845
H      -2.148087   -0.312008    0.073738
H      -2.243144   -0.362149   -2.198434
H       1.358405   -1.416249   -1.020454
H       2.589411   -0.746832    2.186807
H       1.868978    0.891331    2.093186
H      -0.481688   -1.441703    2.899281
H      -0.773391   -2.413558    1.457327
H       0.741990   -2.590893    2.344038
