16

C       0.042823    1.382713    0.008814
O       0.004464   -0.026176    0.001871
C      -1.304112   -0.540167    0.011578
C      -1.189437   -2.069081    0.002645
C      -2.480297   -2.735501    0.011324
C      -3.556947   -3.283669    0.018877
C      -4.854561   -3.906499    0.028149
O      -5.044415   -5.101319    0.022059
H       1.094011    1.679223    0.000582
H      -0.455105    1.807951   -0.876443
H      -0.438522    1.798702    0.907535
H      -1.855440   -0.207930    0.906281
H      -1.872198   -0.198854   -0.869119
H      -0.618424   -2.377492   -0.881667
H      -0.601996   -2.386530    0.872906
H      -5.700205   -3.188480    0.041846
