18

O       0.013828    1.359010   -0.462298
C      -0.110465   -0.029619   -0.458746
C      -1.308767   -0.484755    0.361139
O      -1.965347    0.346015    0.958304
C      -1.651245   -1.953433    0.360761
C      -2.662663   -2.501716    1.398873
N      -3.593117   -3.015066    0.327564
C      -4.016285   -1.823558   -0.430215
C      -2.680687   -2.389023   -0.704857
H      -0.688489    1.675460    0.128760
H      -0.216298   -0.424857   -1.482926
H       0.785420   -0.518009   -0.035444
H      -0.741754   -2.555912    0.297570
H      -2.272379   -3.332206    1.988429
H      -3.114000   -1.755609    2.057278
H      -4.798747   -2.039983   -1.150514
H      -4.108849   -0.870715    0.084167
H      -2.426199   -2.891927   -1.632079
