16

O       0.017495    0.528623    1.293774
C      -0.021370    1.361545    0.398372
C      -1.350195    1.796298   -0.098234
C      -1.668932    2.827754   -0.887854
C      -0.748853    3.799707   -1.574886
C       0.507201    3.183129   -2.203739
C       1.499448    2.608061   -1.230110
C       1.262845    1.881987   -0.132000
H      -2.148265    1.203552    0.340521
H      -2.730503    3.013243   -1.041759
H      -1.311166    4.316510   -2.359937
H      -0.449669    4.579836   -0.859797
H       0.208032    2.401614   -2.917339
H       1.009589    3.952585   -2.799664
H       2.543675    2.793624   -1.475426
H       2.105435    1.521955    0.452106
