15

O       0.052084    1.306249   -0.413317
C       0.016869    0.048847    0.229495
C      -1.366297   -0.575910    0.153837
C      -1.833529   -1.226601   -1.133811
C      -0.947124   -1.250631   -2.263840
N      -0.231679   -1.217329   -3.172284
C      -1.551702   -2.078557    0.111656
C      -0.421665   -2.966266    0.151680
N       0.476909   -3.692045    0.202987
H       0.124922    1.153102   -1.361928
H       0.768848   -0.641335   -0.173419
H       0.267158    0.224483    1.280483
H      -2.138656   -0.030517    0.686394
H      -2.880797   -1.125898   -1.396971
H      -2.436212   -2.480493    0.594531
