8

O      -0.079517    1.214541    0.009310
N       1.185391    1.846445    0.000553
C       2.010825    0.829781   -0.012525
O       3.290923    0.614187   -0.025700
N       3.295052   -1.070130   -0.034704
N       2.143084   -1.430237   -0.025920
C       1.255427   -0.372007   -0.011779
N      -0.023739   -0.140105    0.001636
