15

O      -0.147733    1.327193   -0.104135
N       0.048936   -0.055445   -0.017219
C      -1.059211   -0.667488    0.048027
C      -1.214579   -2.165950    0.128571
C      -2.709873   -2.298504    0.461016
O      -3.329252   -1.160525   -0.152929
C      -2.461918   -0.057573    0.023484
C      -2.757302    0.668096    1.278929
N      -3.013061    1.205923    2.268816
H       0.752005    1.671906   -0.113267
H      -0.991993   -2.621382   -0.842280
H      -0.556709   -2.615077    0.875093
H      -3.182529   -3.187785    0.042239
H      -2.877728   -2.282346    1.546735
H      -2.587536    0.633622   -0.815307
