20

C       0.053667    1.460385   -0.305057
N       0.040160    0.011258   -0.194376
C      -1.019482   -0.577211    0.168411
C      -1.018727   -2.097388    0.206879
O      -1.625967   -2.645061    1.361548
C      -3.003772   -2.935103    1.214979
C      -3.823127   -1.715085    0.760235
C      -3.216450   -0.403715    1.257862
O      -2.171562    0.109544    0.419429
H       1.072210    1.818408   -0.129425
H      -0.226208    1.762561   -1.322785
H      -0.631956    1.960268    0.388904
H      -1.494778   -2.487764   -0.706737
H       0.027717   -2.404849    0.196204
H      -3.151050   -3.776819    0.520108
H      -3.328564   -3.262795    2.207417
H      -3.896342   -1.663826   -0.331611
H      -4.848264   -1.808148    1.136642
H      -3.967639    0.389562    1.242521
H      -2.846891   -0.508122    2.284543
