19

O       0.000232    0.042581   -0.011742
C      -0.015204    1.245309    0.031025
C      -1.217871    2.182621    0.046123
C      -0.810895    3.232251    1.102263
C       0.757034    3.253173    1.080200
C       1.161994    2.214355    0.012655
C       1.126620    2.847055   -1.406066
O      -0.069414    3.578631   -1.611231
C      -1.239283    2.815512   -1.372788
H      -2.158957    1.665171    0.240214
H      -1.228335    4.215512    0.872303
H      -1.181282    2.939072    2.088095
H       1.141455    4.247128    0.838923
H       1.162700    2.970382    2.055120
H       2.121627    1.722254    0.180018
H       1.944996    3.563557   -1.524865
H       1.241328    2.058353   -2.166994
H      -1.354282    2.023752   -2.130489
H      -2.079481    3.509906   -1.468257
