15

C      -0.055972    1.531463   -0.014755
C      -0.017713    0.029429   -0.007313
C      -0.004197   -0.728136   -1.165098
N       0.017405   -2.069085   -1.193449
C       0.026182   -2.650467    0.002358
N       0.021663   -2.055453    1.193600
C      -0.002997   -0.716817    1.193345
N      -0.056270   -0.106335    2.418440
H       0.833670    1.968137    0.459324
H      -0.098921    1.914193   -1.037827
H      -0.930619    1.915617    0.524501
H      -0.013170   -0.226559   -2.132259
H       0.043064   -3.738356    0.014804
H       0.149694   -0.705428    3.202866
H       0.246727    0.849540    2.498296
