13

C       0.032131    1.490084    0.009781
N      -0.020348    0.034084    0.002349
C      -0.039997   -0.693226   -1.165676
N      -0.020300   -1.969891   -1.228793
C       0.065693   -2.704336   -0.012960
O       0.187673   -3.901310   -0.020193
N      -0.004928   -1.983053    1.211693
C      -0.025321   -0.705782    1.162605
H       1.064567    1.854682    0.003087
H      -0.486218    1.878560   -0.869404
H      -0.471221    1.868790    0.901832
H      -0.087948   -0.096503   -2.077064
H      -0.061740   -0.118928    2.080910
