19

C       0.286713    1.449080    0.010319
C       0.022749   -0.034978    0.035612
N      -0.171420   -0.706138    1.106983
O      -0.111686    0.101497    2.257041
C       0.001749   -0.785137   -1.261283
C      -0.935961   -0.216113   -2.314715
C       1.326838   -1.364157   -1.732043
C       0.226154   -2.273285   -1.243387
H       0.810078    1.736213   -0.904244
H      -0.652015    2.013602    0.056546
H       0.878927    1.742628    0.879094
H      -0.240277   -0.544522    2.959114
H      -0.702866    0.827384   -2.551862
H      -0.860536   -0.789793   -3.243341
H      -1.977742   -0.259236   -1.977851
H       1.543384   -1.330429   -2.795046
H       2.192868   -1.234678   -1.092036
H       0.348823   -2.750000   -0.279882
H      -0.310114   -2.864045   -1.978400
