17

O      -0.067647   -0.042737   -0.698130
C       0.006637    0.958141   -0.009109
N      -1.092651    1.321737    0.778369
C      -1.702496    2.523080    1.173595
C      -1.303095    3.795751    1.145363
C       0.034062    4.320725    0.672929
C       1.177581    3.683538    1.413009
C       1.668079    2.487628    1.103896
N       1.176042    1.695918    0.036543
H      -1.755797    0.564940    0.694483
H      -2.695314    2.315341    1.560806
H      -2.017933    4.517811    1.524518
H       0.154828    4.125881   -0.400489
H       0.062911    5.405419    0.804763
H       1.582705    4.197173    2.279421
H       2.498436    2.054716    1.657965
H       1.876039    1.207966   -0.505433
