12

N       0.016755    1.384934    0.150897
C       0.007392    0.019283    0.050721
C      -1.128028   -0.726193    0.027854
F      -2.319333   -0.127106    0.047029
C      -1.112466   -2.165993   -0.021374
O      -2.057547   -2.904120   -0.047289
O       0.173325   -2.733334   -0.048098
N       1.340188   -2.008471   -0.030328
C       1.242245   -0.725839    0.018428
H       0.835273    1.873953   -0.173652
H      -0.856966    1.854348   -0.029943
H       2.194245   -0.202123    0.038142
