21

C      -0.043657    1.531256   -0.047952
C      -0.011140    0.005197    0.035063
C      -1.410266   -0.591946   -0.115499
O       0.841228   -0.509657   -1.027886
C       1.854984   -1.184660   -0.319023
C       1.261878   -1.969137    0.890037
C       2.560817   -1.702493    1.680184
C       2.287683   -0.375397    0.940671
C       0.758831   -0.529014    1.250306
H       0.961389    1.951086    0.042508
H      -0.459160    1.849784   -1.008842
H      -0.666977    1.950682    0.748900
H      -1.844187   -0.302785   -1.077533
H      -1.378180   -1.683594   -0.072666
H      -2.073374   -0.233728    0.679097
H       2.582135   -1.631132   -0.997480
H       0.668759   -2.883916    0.858745
H       2.469966   -1.678614    2.769148
H       3.449346   -2.264742    1.376438
H       2.874716    0.543437    0.967640
H       0.377334   -0.315229    2.250170
