19

C      -0.549323    1.755583   -0.117334
O      -0.245348    0.409078   -0.423224
C      -1.286553   -0.489885   -0.178395
C      -1.070391   -1.922156   -0.714244
C       0.347979   -2.537768   -0.606840
C      -0.133299   -3.244606    0.695043
N      -1.429727   -2.482082    0.646632
C      -1.342775   -1.178761    1.213697
N      -1.196861   -0.885273    2.431940
H       0.312050    2.354212   -0.421622
H      -1.438639    2.100139   -0.666271
H      -0.722879    1.910647    0.956326
H      -2.255431   -0.071506   -0.492124
H      -1.685444   -2.235533   -1.559986
H       0.635858   -3.193829   -1.429841
H       1.129755   -1.791343   -0.454257
H      -0.306902   -4.317933    0.587043
H       0.431696   -3.057963    1.610752
H      -1.124434    0.123205    2.562831
