18

C      -0.171522    1.387211   -0.083427
O       0.224701    0.043861    0.072536
C       0.741505   -0.559662   -1.114253
C       1.255849   -1.938828   -0.693851
C       0.166537   -2.982108   -0.492963
O       0.229122   -3.890805    0.305638
N      -0.896566   -2.859555   -1.370278
C      -1.065696   -1.789763   -2.244411
C      -0.299147   -0.696166   -2.200558
H       0.652849    2.011605   -0.464693
H      -1.029401    1.493984   -0.762134
H      -0.459698    1.752780    0.905077
H       1.587485    0.045993   -1.477024
H       1.916570   -2.324833   -1.480760
H       1.833878   -1.869781    0.228477
H      -1.593071   -3.586993   -1.314024
H      -1.861902   -1.922359   -2.968762
H      -0.460255    0.101694   -2.913541
