17

C       0.224234    1.542559   -0.072478
C       0.058999    0.051398    0.078036
O       0.879341   -0.726085   -0.842414
C       1.377090   -1.574486    0.197256
C       2.740363   -1.138867    0.765596
N       2.058700   -0.124404    1.624425
C       0.719364   -0.674437    1.288826
C      -0.102365   -1.125229    2.385311
N      -0.752817   -1.479430    3.274215
H       1.248834    1.836531    0.162487
H      -0.011411    1.836109   -1.099789
H      -0.462163    2.068474    0.599397
H      -0.991278   -0.252083   -0.025379
H       1.172112   -2.633473    0.032839
H       3.233714   -1.941738    1.326450
H       3.437759   -0.709971    0.041150
H       2.287302   -0.180278    2.609403
