15

C      -1.063731    1.017439   -0.406888
C      -0.180528   -0.160978   -0.174370
C       0.640654   -0.868446   -1.005035
O       1.239562   -1.834701   -0.301994
N       0.749944   -1.718125    1.038748
N      -0.053339   -0.754877    1.066329
C       0.989862   -0.782550   -2.435524
C      -0.028589   -0.913604   -3.496104
O       0.517174    0.357925   -3.148580
H      -0.805904    1.832905    0.275949
H      -0.954639    1.372567   -1.431799
H      -2.113821    0.763758   -0.227593
H       2.010396   -1.083743   -2.667350
H       0.267166   -1.300310   -4.469449
H      -1.067834   -1.069968   -3.215061
