23

C       0.079925    1.515350   -0.070027
C       0.030255   -0.002898   -0.055636
O       0.702352   -0.487794   -1.201192
C       0.711924   -1.896736   -1.291943
C       1.489450   -2.312258   -2.540599
C       2.936335   -1.805208   -2.458384
O       3.712776   -2.115946   -3.622479
C       1.429966   -3.836895   -2.737153
O       1.948743   -4.257365   -3.981404
H       1.116006    1.865812   -0.060300
H      -0.405828    1.906786   -0.968330
H      -0.432130    1.921858    0.807104
H       0.505419   -0.398241    0.858256
H      -1.014625   -0.356751   -0.052333
H       1.173538   -2.334936   -0.388631
H      -0.319265   -2.284889   -1.344374
H       1.004002   -1.843144   -3.407996
H       2.945458   -0.727818   -2.261045
H       3.454253   -2.300691   -1.628410
H       3.374786   -1.581826   -4.349472
H       1.952870   -4.326865   -1.895426
H       0.387185   -4.174796   -2.703100
H       2.810497   -3.825648   -4.069218
