17

C       0.127692    1.409039    0.883975
C      -0.162303    0.307410   -0.133378
O       0.835794   -0.723412   -0.105045
C      -1.531309   -0.289888    0.024490
C      -2.691341    0.143713    0.632885
C      -3.690043   -0.846346    0.413833
C      -3.111246   -1.857656   -0.317841
N      -1.808425   -1.505977   -0.553315
H       1.144218    1.783926    0.741405
H      -0.570895    2.243057    0.768130
H       0.031260    1.028550    1.906754
H      -0.054303    0.728032   -1.142639
H       0.798229   -1.126495    0.770757
H      -2.814880    1.072681    1.167889
H      -4.712672   -0.819336    0.757598
H      -3.510285   -2.792327   -0.678115
H      -1.107178   -2.061639   -1.013181
