10

F       0.014776    0.054630    0.086084
C      -0.055847    1.366488    0.082599
C      -1.212514    2.041715   -0.032141
F      -2.371171    1.442749   -0.150623
C      -1.182230    3.496018   -0.025015
N      -2.219166    4.207681   -0.127583
O       0.092504    4.029463    0.105000
N       1.277052    3.230824    0.222206
N       1.159465    2.002337    0.206926
H      -1.992993    5.202083   -0.102003
