16

C       0.145100    1.507706    0.007025
C      -0.066485   -0.004507    0.003709
C      -1.506652   -0.427109    0.014045
N      -2.484430    0.411513    0.023913
C      -3.750974   -0.129730    0.032479
C      -4.006495   -1.458216    0.031043
C      -2.911562   -2.399011    0.020073
O      -2.932919   -3.595392    0.017006
O      -1.638568   -1.765665    0.011687
H       1.214624    1.734418   -0.001065
H      -0.315471    1.971345   -0.868327
H      -0.300869    1.965457    0.892981
H       0.403634   -0.469637   -0.872336
H       0.417932   -0.475542    0.868721
H      -4.561358    0.593750    0.040701
H      -5.009617   -1.863096    0.037836
