21

C      -0.041208    1.448416    0.014228
O       0.005202    0.033127    0.045937
C      -1.253774   -0.573597   -0.034786
O      -1.878115   -0.344646   -1.285026
C      -1.213304   -1.010969   -2.360015
C      -1.127974   -2.502318   -2.075847
O      -0.452934   -2.727756   -0.850251
C      -1.102635   -2.080217    0.236005
C      -0.318627   -2.390424    1.499682
H       0.988401    1.803488    0.094131
H      -0.484072    1.818013   -0.917676
H      -0.623673    1.845569    0.859415
H      -1.943032   -0.128762    0.699900
H      -1.803997   -0.808894   -3.258127
H      -0.204123   -0.601131   -2.494412
H      -2.143392   -2.931525   -2.038732
H      -0.557604   -3.019093   -2.853925
H      -2.131774   -2.471086    0.322452
H       0.693442   -1.989941    1.420603
H      -0.804344   -1.943720    2.372851
H      -0.265602   -3.472177    1.646645
