17

C       1.933964    0.636051    0.084451
C       1.636131   -0.843184   -0.040939
O       2.101199   -1.663394    0.724667
C       0.727963   -1.226975   -1.176268
C       0.941280   -2.565059   -1.829688
N      -0.263477   -2.315849   -1.074418
C      -0.440490   -3.016862    0.201972
C      -1.072729   -4.316193   -0.041519
N      -1.555932   -5.349977   -0.219297
H       2.341818    1.023942   -0.856140
H       1.008628    1.191003    0.279052
H       2.642999    0.805028    0.894914
H       0.376579   -0.398818   -1.786053
H       0.819420   -2.655483   -2.904998
H       1.711281   -3.188949   -1.380207
H       0.493193   -3.168915    0.757018
H      -1.106970   -2.418517    0.833133
