19

C      -0.091014    1.521602   -0.074509
C      -0.088082    0.025018    0.101042
O       1.167788   -0.653717   -0.086673
C       0.583232   -0.651669    1.215856
C       1.314950    0.048359    2.359645
O       1.447731   -0.926994    3.389741
C       0.315879   -1.776508    3.292820
C       0.109469   -1.991163    1.782433
O      -1.227158   -2.265642    1.405356
H       0.776205    1.984452    0.403342
H      -0.070593    1.779155   -1.138439
H      -1.000532    1.954147    0.356387
H      -0.932714   -0.501315   -0.341666
H       2.311973    0.383336    2.064421
H       0.741615    0.915567    2.724772
H       0.531757   -2.690469    3.851981
H      -0.590684   -1.306846    3.710031
H       0.791707   -2.768936    1.413007
H      -1.389818   -3.204822    1.532172
