18

C       0.010434    1.569202    0.255272
C       0.104953    0.098796   -0.010351
N      -0.861647   -0.863592    0.553437
C       0.601874   -1.042747    0.844327
C       1.066526   -1.772508   -0.391227
C       0.964406   -2.867459   -1.130321
C       0.649568   -2.405050   -2.552675
O       0.269798   -1.015810   -2.444264
C       0.827973   -0.559223   -1.233721
H       0.934116    2.081071   -0.034183
H      -0.812799    2.017005   -0.313171
H      -0.167887    1.770231    1.317722
H      -1.267678   -0.409882    1.375136
H       0.975293   -1.044805    1.859757
H       0.950184   -3.907989   -0.833265
H       1.500404   -2.509017   -3.246199
H      -0.194665   -2.963438   -2.975602
H       1.738523    0.039947   -1.412802
