20

C       0.133436    1.553408   -0.075977
C      -0.021060    0.059003    0.079913
C      -1.409375   -0.546878   -0.116509
C      -1.401156   -1.911292    0.615475
C      -0.266469   -1.818478    1.667391
C       0.671507   -0.737879    1.155202
C       1.178554   -0.820198   -0.284867
C       1.086646   -2.002483   -1.092339
N       1.029501   -2.949141   -1.756726
H       1.151465    1.880985    0.157071
H      -0.092857    1.871490   -1.099796
H      -0.551133    2.083837    0.595671
H      -2.136291    0.136146    0.339328
H      -1.682178   -0.644627   -1.172452
H      -2.366885   -2.130005    1.077837
H      -1.197029   -2.718105   -0.089799
H      -0.657965   -1.497407    2.639512
H       0.231806   -2.780474    1.823280
H       1.348290   -0.259666    1.855977
H       2.095554   -0.268230   -0.470111
