15

N      -0.059525   -1.206380   -0.103026
C      -0.016839   -0.054835   -0.013571
C       0.010881    1.403096    0.079871
C      -0.301947    2.117805    1.459627
C       0.252808    1.230344    2.542823
C       1.585681    1.186812    2.418214
C       2.011752    2.125211    1.350564
C       0.888807    3.028416    1.037169
N       1.334315    2.080854   -0.038057
H      -0.618185    1.821208   -0.709801
H      -1.304744    2.519303    1.584306
H      -0.360968    0.592613    3.165543
H       2.268967    0.541875    2.954099
H       3.039761    2.444344    1.237564
H       0.913621    4.106830    0.925237
