17

C      -0.113929    1.484495    0.070500
C       0.002491   -0.011160   -0.017299
C      -0.017212   -0.683240   -1.201942
C      -0.021524   -2.135798   -1.267594
O      -0.034042   -2.772645   -2.307403
C      -0.093024   -2.838745    0.094980
C       0.611933   -2.034036    1.184556
N       0.109026   -0.663737    1.183846
H       0.786096    1.923009    0.519063
H      -0.255818    1.924011   -0.917108
H      -0.963781    1.767271    0.702387
H      -0.102314   -0.137001   -2.133071
H      -1.155325   -2.955069    0.348752
H       0.336520   -3.838510    0.002436
H       0.441540   -2.470687    2.172813
H       1.698536   -2.040552    0.996443
H       0.373176   -0.094276    1.973072
