17

O      -0.134374   -0.004475    0.084974
C      -0.006186    1.184069   -0.093059
C       1.276819    1.904151   -0.064515
C       1.310325    3.380639    0.320902
C       1.584042    3.016419   -1.095192
C       3.020554    2.812707   -1.588239
C       3.597766    1.669445   -0.763143
O       3.645672    1.912304    0.649904
C       2.560121    1.131010    0.129660
H      -0.887914    1.833996   -0.303088
H       0.354390    3.846472    0.538592
H       2.131696    3.671847    0.963154
H       0.829452    3.272453   -1.831637
H       3.011860    2.521556   -2.644225
H       3.625917    3.721570   -1.503903
H       4.421423    1.077615   -1.155500
H       2.502702    0.099461    0.458569
