17

C      -0.110967    1.537929    0.019242
C       0.049390    0.022818    0.030003
C       1.070940   -0.599567   -0.951541
C       2.396185   -0.059976   -0.410462
O       2.175995   -0.063112    1.013217
C       0.839787   -0.572271    1.207908
C       0.884030   -2.045677    0.781543
O       0.834161   -3.058905    1.408168
O       1.035768   -2.003939   -0.587116
H       0.810683    2.043900    0.316019
H      -0.398717    1.895873   -0.974921
H      -0.896329    1.840903    0.718035
H      -0.916574   -0.475918   -0.094716
H       0.895286   -0.507030   -2.021422
H       3.230956   -0.720391   -0.664595
H       2.616258    0.956579   -0.754991
H       0.528255   -0.391385    2.233047
