17

C       0.163196    1.530916    0.211875
O       1.474141    1.485580   -0.398701
C       1.385755    0.060426   -0.597237
C       2.451336   -0.752167    0.091242
O       2.605662   -0.570666    1.501025
C       2.003007   -1.776476    1.048621
C       0.518533   -1.903076    1.343546
O      -0.135138   -0.653588    1.284949
C      -0.021153    0.013780    0.049327
H       0.203610    1.849756    1.258171
H      -0.529327    2.165643   -0.352392
H       1.392204   -0.190970   -1.667530
H       3.389255   -0.886350   -0.446509
H       2.593168   -2.683619    1.182482
H       0.072282   -2.638557    0.651522
H       0.366457   -2.269993    2.363396
H      -0.821568   -0.302694   -0.632468
