15

O      -0.011480    1.320946    0.008160
N       0.061485   -0.070758    0.003693
C      -1.088312   -0.623237    0.011179
C      -1.225916   -2.138839    0.008061
C      -2.753123   -2.402837    0.018586
C      -3.366230   -1.033926    0.027502
C      -2.448720   -0.045275    0.023419
C      -2.796629    1.336652    0.030266
N      -3.153303    2.437687    0.036358
H       0.915490    1.582801    0.001614
H      -0.743273   -2.565341   -0.874834
H      -0.730489   -2.570024    0.881563
H      -3.088138   -2.974034   -0.855843
H      -3.075127   -2.979695    0.894176
H      -4.436566   -0.864915    0.036238
