21

O      -0.052741    1.388952   -0.028835
C       0.023197   -0.029111   -0.131911
C      -1.382333   -0.577704    0.054132
C      -2.395735   -0.127728   -1.039922
C      -3.152399   -1.397631   -1.477214
O      -2.524543   -1.864394   -2.689862
C      -2.917938   -2.392259   -0.328241
C      -1.452608   -2.127530    0.060366
O      -0.547754   -2.733112   -0.853680
H       0.815629    1.748587   -0.231192
H       0.415202   -0.340197   -1.109879
H       0.692210   -0.449509    0.635472
H      -1.740493   -0.225935    1.029372
H      -3.089559    0.620411   -0.650458
H      -1.900665    0.318183   -1.906225
H      -4.214559   -1.207505   -1.673467
H      -2.969165   -2.676593   -2.956826
H      -3.582388   -2.149670    0.509937
H      -3.095859   -3.434803   -0.611630
H      -1.196921   -2.536418    1.042426
H      -0.880851   -2.526928   -1.739838
