17

O       0.056300    1.486597    0.135297
C      -0.003521    0.077854   -0.016430
C       0.766480   -0.607265    1.103086
O       0.134322   -0.330952    2.369751
C      -1.157300   -0.760453    2.549198
O      -1.571479   -0.917824    3.662762
C      -1.973739   -0.955071    1.311732
C      -2.534717    0.274840    0.613586
C      -1.429763   -0.498691   -0.028764
H       0.026950    1.678172    1.080346
H       0.475314   -0.142375   -0.975734
H       0.821816   -1.690026    0.941298
H       1.778846   -0.207786    1.196135
H      -2.626469   -1.818041    1.366770
H      -3.536437    0.187276    0.210167
H      -2.295254    1.253768    1.011455
H      -1.678026   -1.110529   -0.889287
