18

O      -0.085266    1.479239   -0.038966
C       0.067055    0.074632    0.114364
C      -1.322323   -0.535106   -0.026076
N      -1.904092   -0.275511   -1.332746
C      -2.564459   -1.334513   -1.910149
O      -3.276940   -1.285378   -2.888407
C      -2.210794   -2.551680   -1.089833
C      -0.728628   -2.856602   -1.025618
C      -1.375784   -2.059435    0.072474
H       0.786859    1.883514   -0.045746
H       0.733542   -0.343079   -0.653017
H       0.477214   -0.182895    1.103461
H      -1.949601   -0.097458    0.765380
H      -1.991480    0.660313   -1.694367
H      -2.937260   -3.350035   -1.024397
H      -0.452174   -3.878536   -0.791171
H      -0.073149   -2.364348   -1.735984
H      -1.464269   -2.498527    1.058194
