14

C      -0.007242    1.404127    0.098560
C       0.015392   -0.073984   -0.041181
N       0.007355   -0.773680   -1.142118
C       0.037044   -2.079201   -0.719021
O       0.038648   -3.103725   -1.580858
C       0.063082   -2.140050    0.648315
O       0.048327   -0.813676    1.078411
C       0.097687   -3.175184    1.584098
C       0.127551   -4.076009    2.384860
H       0.879166    1.758693    0.634372
H      -0.032048    1.856997   -0.892565
H      -0.885945    1.729110    0.664990
H       0.016195   -2.723644   -2.467984
H       0.153788   -4.872994    3.085616
