16

C      -0.164902    1.547056   -0.016459
C       0.082080    0.027036    0.033969
C       0.784853   -0.488991   -1.187880
C       2.067973   -0.908113   -1.224355
C       2.627849   -1.366518   -2.461486
N       1.994563   -1.424374   -3.583404
O       0.674062   -1.009266   -3.564369
C       0.013001   -0.539832   -2.436587
O      -1.139266   -0.216270   -2.563151
H       0.778769    2.097146   -0.083815
H      -0.782180    1.805147   -0.879191
H      -0.684682    1.872468    0.888958
H       0.672862   -0.228769    0.919671
H      -0.883634   -0.483270    0.117660
H       2.687809   -0.905411   -0.332907
H       3.658562   -1.702408   -2.520273
