20

C      -0.343765    1.560450    0.076659
C       0.001685    0.082390    0.070002
C      -1.117688   -0.778989   -0.484596
O       1.246938   -0.138111   -0.726211
C       1.885852   -0.714194    0.333674
N       3.006724   -1.271607    0.439966
C       0.751823   -0.509366    1.322184
C       1.050886    0.408778    2.500177
O       0.179076   -1.722601    1.775774
H       0.512123    2.175363    0.360874
H      -0.667368    1.871703   -0.921189
H      -1.163091    1.757799    0.775113
H      -1.357270   -0.461541   -1.503929
H      -0.836261   -1.831782   -0.490502
H      -2.015992   -0.673030    0.131295
H       3.511562   -1.285606   -0.447958
H       1.499595    1.356000    2.192334
H       0.133263    0.612370    3.059880
H       1.757733   -0.092831    3.167780
H       0.909777   -2.316277    1.985137
