19

C       0.035719    1.379636   -0.460233
C      -0.043603    0.029181    0.229929
O       0.872751   -0.404987    0.899070
C      -1.298332   -0.740073    0.045131
C      -1.750342   -1.710140    1.123710
C      -1.427096   -2.271618   -0.208628
C      -2.583431   -2.027222   -1.181321
C      -2.426219   -0.481384   -0.946156
O      -3.503484    0.239491   -0.387669
H       0.918067    1.916083   -0.109833
H       0.108800    1.245120   -1.546107
H      -0.870018    1.964867   -0.269738
H      -1.000358   -1.853539    1.892988
H      -2.780199   -1.655707    1.463428
H      -0.592466   -2.942667   -0.365478
H      -2.375379   -2.321054   -2.212168
H      -3.546222   -2.446080   -0.872288
H      -2.056231    0.009480   -1.856144
H      -4.183827    0.341048   -1.061370
