19

C      -0.079234    1.578386   -0.009210
C      -0.022495    0.041989   -0.004349
C       0.876031   -0.497968   -1.115000
C       2.084892   -0.892175   -0.671466
C       2.130921   -0.701780    0.769382
C       2.957793   -0.385036    1.764485
C       2.114147    0.068022    2.941318
O       0.784824    0.226479    2.422197
C       0.703919   -0.543077    1.236097
H       0.922374    2.004555    0.096561
H      -0.511361    1.947451   -0.944618
H      -0.688865    1.940409    0.822714
H      -1.042365   -0.348378   -0.092843
H       0.576237   -0.476343   -2.157809
H       2.907981   -1.228084   -1.289868
H       4.039569   -0.363638    1.765931
H       2.115219   -0.661622    3.770090
H       2.443431    1.030441    3.353790
H       0.264568   -1.532438    1.457278
