16

O      -0.025038    1.304830    0.076243
C      -0.012364   -0.091959   -0.013406
C      -1.388874   -0.676265   -0.012061
C      -0.532888   -0.674615   -1.302248
C      -0.500282   -2.212780   -1.253960
O       0.601210   -2.822912   -0.526066
C      -0.215316   -2.968288    0.667610
C      -1.390311   -2.220601    0.002789
H       0.727835    1.637380   -0.423663
H       0.813235   -0.577811    0.502023
H      -2.232446   -0.045775    0.239191
H      -0.625732   -0.060085   -2.189995
H      -0.737154   -2.740707   -2.180672
H      -0.420654   -4.025536    0.875261
H       0.246429   -2.509695    1.549358
H      -2.374490   -2.685577    0.015768
