18

C      -0.474723    1.448081   -0.147110
C      -0.057088   -0.025511   -0.023391
O      -1.176474   -0.907161    0.082249
C      -1.759486   -0.951315    1.349315
C      -2.973822   -0.109574    1.660970
C      -3.099932   -1.603066    1.430735
C       0.731020   -0.450742   -1.180567
C       1.393561   -0.762470   -2.132564
H       0.410628    2.080295   -0.257694
H      -1.111973    1.582111   -1.024827
H      -1.021649    1.764350    0.743838
H       0.567750   -0.138720    0.878210
H      -1.049293   -1.135720    2.156789
H      -3.095909    0.280179    2.666034
H      -3.338305    0.537275    0.871619
H      -3.535335   -1.920780    0.490287
H      -3.310257   -2.252064    2.273093
H       1.977140   -1.051720   -2.971332
