12

N      -0.042607    1.313809   -0.118177
C       0.067029   -0.026543    0.093420
O       1.120178   -0.606764    0.266784
C      -1.216535   -0.724866    0.085720
C      -2.247020   -1.350472    0.092253
C      -3.530274   -2.048966    0.117065
N      -3.424804   -3.387038   -0.110476
O      -4.579887   -1.470681    0.316400
H       0.795368    1.871975   -0.095653
H      -0.938210    1.762888   -0.201353
H      -2.530984   -3.835139   -0.215299
H      -4.262255   -3.945492   -0.077851
