21

C      -0.114562    1.510727    0.118242
C       0.013699    0.017859    0.013266
C      -0.851903   -0.937635    0.782535
C       0.637318   -0.994650    0.994628
C       1.349704   -1.691431   -0.176641
O       0.989357   -3.009041   -0.540599
C      -0.016963   -2.998068   -1.554048
C      -0.090361   -1.568877   -2.158407
C       0.702165   -0.695809   -1.173884
H       0.833181    2.011275   -0.112824
H      -0.868812    1.896426   -0.579151
H      -0.415318    1.812890    1.126871
H      -1.400469   -0.483406    1.602824
H      -1.389778   -1.752395    0.309441
H       1.076597   -0.817901    1.969854
H       2.439062   -1.643442   -0.091558
H       0.255522   -3.749773   -2.303854
H      -0.982239   -3.300701   -1.126084
H       0.377024   -1.548109   -3.146607
H      -1.126141   -1.239219   -2.278053
H       1.418449   -0.042173   -1.675446
