21

C      -0.022215    1.696042   -0.008980
C       1.464807    1.233862    0.047249
C       0.996558    0.204082    1.127277
C       1.840439   -0.980551    1.589819
C       2.797003   -1.581775    0.567339
O       2.120460   -2.017912   -0.593185
C       1.901608   -0.985781   -1.528624
C       1.075053    0.216333   -1.081925
C      -0.068293    0.137880   -0.023040
H      -0.413599    2.187925    0.885024
H      -0.342840    2.204120   -0.921927
H       2.347001    1.877097    0.079519
H       0.588150    0.693140    2.019845
H       2.431664   -0.665978    2.461154
H       1.166568   -1.770338    1.947120
H       3.585707   -0.858108    0.301093
H       3.291605   -2.461750    0.993567
H       2.867795   -0.617846   -1.920657
H       1.379946   -1.465462   -2.364695
H       0.773076    0.731927   -2.003756
H      -0.958379   -0.492967   -0.058140
