15

C      -0.073099    1.576328   -0.002567
C      -0.003443    0.057574    0.020453
C       0.732247   -0.668963   -1.169629
N       1.671643   -1.189673   -0.164958
C       1.090691   -0.574948    0.918299
O       1.365425   -0.545949    2.086752
C      -0.021731   -1.664648   -1.913930
C      -0.643873   -2.482365   -2.537708
H       0.902920    2.016069   -0.232467
H      -0.793333    1.930239   -0.746515
H      -0.384003    1.948801    0.977788
H      -0.982258   -0.387312    0.215061
H       1.205490    0.038898   -1.860810
H       2.439480   -1.840043   -0.247041
H      -1.194994   -3.206536   -3.085509
