18

C      -0.041889    1.517534    0.131725
C      -0.035884    0.028727    0.035466
C      -0.020416   -0.723228   -1.086473
C      -0.025490   -2.219014   -0.778335
C       0.030467   -2.259159    0.741910
N       1.259210   -1.664579    1.306316
C       0.003040   -0.856923    1.236451
C       0.019712   -0.241412   -2.415487
C       0.044676    0.129507   -3.563024
H       0.865961    1.878805    0.631481
H      -0.100273    1.979514   -0.856213
H      -0.891136    1.870681    0.730721
H      -0.933555   -2.698796   -1.163604
H       0.831030   -2.726895   -1.234308
H      -0.454119   -3.066212    1.280437
H       1.366264   -2.006131    2.260741
H      -0.475714   -0.558675    2.163704
H       0.071337    0.465626   -4.569618
