15

N       0.045758    1.374164    0.167806
C       0.032346   -0.013492    0.059983
N      -1.140498   -0.638336    0.125924
C      -1.147917   -1.975040    0.060189
C      -0.003889   -2.745483   -0.085431
C       1.206261   -2.065536   -0.138173
F       2.359682   -2.742146   -0.256005
C       1.269127   -0.684821   -0.058453
N       2.471422    0.038668   -0.134253
H       0.722464    1.824134   -0.436452
H      -0.882161    1.764183    0.069178
H      -2.123088   -2.450431    0.115301
H      -0.032860   -3.825405   -0.149470
H       3.280754   -0.567706   -0.093456
H       2.533231    0.748515    0.588079
