17

C       0.060334    1.486181    0.060161
C       0.018349   -0.001266   -0.041429
N       0.012353   -0.664529   -1.127293
C      -0.058395   -2.094583   -0.798535
C      -0.021117   -2.153679    0.726519
C       1.155625   -1.544112    1.414125
N      -0.053860   -0.735445    1.205492
C      -0.883399   -3.111717    1.469872
O      -1.481733   -4.017502    0.946788
H       0.924887    1.805854    0.652509
H       0.115169    1.928437   -0.934507
H      -0.832163    1.851475    0.578469
H      -0.992357   -2.528085   -1.171248
H       0.761989   -2.634103   -1.282917
H       1.365675   -1.791395    2.451223
H       2.026281   -1.331345    0.798352
H      -0.933345   -2.926579    2.565297
