14

N       0.028920    1.323825    0.146298
C      -0.055929   -0.035832    0.040643
N      -1.137271   -0.759785   -0.015910
C      -0.645999   -2.054194   -0.032238
O      -1.434311   -3.152632   -0.102385
C      -2.785988   -3.010557    0.012634
N      -3.500465   -4.044531   -0.074776
C       0.703725   -2.060498    0.008417
O       1.096035   -0.723769    0.054762
H       0.887831    1.730014   -0.192808
H      -0.805433    1.809079   -0.145609
H      -3.096883   -1.977521    0.171770
H      -4.480615   -3.790452    0.033019
H       1.476502   -2.804464    0.006741
