19

O      -0.049592    0.100893    0.425841
C      -0.042506    1.253822    0.106239
C      -1.190621    2.089698   -0.452219
C      -0.697903    3.530725   -0.301834
C       0.840024    3.369839   -0.298188
O       1.071719    2.028647    0.196971
C       1.485230    3.543417   -1.649237
C       2.013265    4.901539   -2.045799
C       2.969109    3.774968   -1.748801
H      -1.339204    1.802006   -1.498852
H      -2.114385    1.861191    0.080581
H      -1.029622    4.199773   -1.097798
H      -1.031992    3.949243    0.651608
H       1.317724    4.044367    0.419225
H       1.033112    2.950380   -2.440619
H       1.886348    5.218576   -3.074538
H       1.937666    5.707492   -1.322721
H       3.534966    3.816746   -0.824221
H       3.502084    3.317247   -2.574042
