20

C      -0.114229    1.482314    0.011227
C      -0.007980   -0.032679    0.002499
O      -1.323015   -0.571209    0.011165
C      -1.382073   -1.944949    0.004981
C      -0.848730   -2.953311    1.079361
C      -1.579632   -3.797436   -0.002453
C      -2.712717   -2.729035    0.011553
C      -0.865615   -2.942818   -1.087303
H       0.882386    1.933974    0.004659
H      -0.661217    1.833740   -0.868213
H      -0.645446    1.824681    0.903807
H       0.534537   -0.378683   -0.890608
H       0.550002   -0.387824    0.882392
H       0.234231   -3.085293    1.150227
H      -1.317952   -2.906921    2.065779
H      -1.702259   -4.877531   -0.006724
H      -3.313518   -2.660926    0.922221
H      -3.327646   -2.652136   -0.888929
H      -1.350153   -2.886924   -2.065792
H       0.216102   -3.074008   -1.176306
