19

N       0.041920    1.538265    0.042667
C       0.413058    0.157753   -0.264587
C       0.826513   -0.537459    1.033781
N      -0.251842   -0.568577    2.060731
C       0.058121   -1.973484    2.417561
C       0.860876   -2.119172    1.088917
N       0.236745   -2.770674   -0.042749
C       2.084467    0.024166    1.549389
N       3.075266    0.423515    1.993134
H      -0.097153    2.062361   -0.814314
H      -0.847387    1.538181    0.533541
H      -0.384405   -0.437175   -0.729756
H       1.260996    0.159930   -0.956917
H      -0.150155    0.109503    2.807921
H       0.686267   -2.091069    3.309640
H      -0.826607   -2.612273    2.517539
H       1.866991   -2.522020    1.204383
H       0.408470   -3.769736   -0.009415
H      -0.770230   -2.641507   -0.029016
