22

C       0.044681    1.547941   -0.012784
C       0.010663    0.013125    0.050294
C       0.812760   -0.472663    1.268780
C      -1.449182   -0.550735   -0.000863
C      -2.223809   -0.032861   -1.235124
C      -1.446116   -2.110523   -0.046512
O      -2.742872   -2.664477   -0.102964
C      -2.183106   -0.166880    1.216424
N      -2.773820    0.087489    2.178238
H       1.079976    1.899323    0.028669
H      -0.398508    1.938300   -0.931654
H      -0.489127    1.987632    0.836965
H       0.495145   -0.374799   -0.856431
H       0.947226   -1.556873    1.285744
H       1.810233   -0.023248    1.256869
H       0.326204   -0.175826    2.203978
H      -1.619849   -0.190747   -2.134712
H      -3.155136   -0.591037   -1.342043
H      -2.459596    1.029280   -1.156594
H      -0.938503   -2.418822   -0.966593
H      -0.884213   -2.511572    0.804271
H      -3.172140   -2.504397    0.745646
