19

C       0.119568    1.550609   -0.128043
C       0.050999    0.039581   -0.041986
C       1.166821   -0.756630   -0.621671
N       1.019718   -0.646405    0.840893
C      -1.307709   -0.614258    0.012439
C      -2.589064    0.131275    0.228564
C      -2.330074   -0.522446   -1.121872
C      -2.088553    0.290511   -2.279497
N      -1.896034    0.938213   -3.219511
H       1.161263    1.876258   -0.207994
H      -0.411116    1.936985   -1.002957
H      -0.310840    2.014671    0.766582
H       0.976756   -1.747462   -1.025471
H       1.972124   -0.217592   -1.113322
H       1.687825    0.027925    1.206990
H      -1.254562   -1.602614    0.457053
H      -3.358023   -0.312315    0.850223
H      -2.556542    1.213713    0.255403
H      -2.880086   -1.431074   -1.342551
