16

N      -0.370400   -0.940174   -0.750653
C      -0.209834    0.139884   -0.370764
C       0.002420    1.497734    0.114302
C      -0.416238    1.703036    1.604653
C       0.689693    2.567068    2.159925
C       1.711384    2.704519    1.317394
C       1.474707    1.978783    0.044140
C       2.525114    1.335236   -0.758742
O       1.911165    2.557076   -1.185093
H      -0.573480    2.177117   -0.523158
H      -1.404395    2.166270    1.687223
H      -0.473902    0.744846    2.133588
H       0.637517    2.989826    3.156389
H       2.626885    3.255620    1.492926
H       3.565282    1.418296   -0.446256
H       2.280399    0.454708   -1.349803
