21

C       0.077308    1.563956    0.103463
C       0.014204    0.036637    0.019350
C      -1.421257   -0.503350    0.011032
C      -1.478127   -2.023335   -0.051463
C      -1.123835   -2.803305    1.233619
O      -2.434036   -3.404686    1.298434
C      -2.867712   -2.727633    0.092672
C      -4.046935   -1.898837    0.285660
C      -5.027232   -1.217809    0.430407
H       1.111722    1.921225    0.104526
H      -0.435209    2.028283   -0.746342
H      -0.403062    1.929865    1.017530
H       0.534528   -0.303816   -0.885873
H       0.563857   -0.397935    0.865062
H      -1.954152   -0.156085    0.905146
H      -1.965924   -0.085224   -0.845537
H      -0.939676   -2.383669   -0.932603
H      -0.333572   -3.557659    1.141455
H      -0.920010   -2.179864    2.114152
H      -3.068024   -3.456438   -0.704347
H      -5.895476   -0.620754    0.562978
