17

C       0.030662    1.384503   -0.053533
N       0.007900   -0.044542   -0.298419
C       1.184680   -0.770272    0.164360
C      -1.221922   -0.646784   -0.115102
C      -2.469126   -0.162245    0.170690
C      -3.347483   -1.299011    0.130313
C      -2.579864   -2.375057   -0.157308
O      -1.269825   -1.989471   -0.315081
H       0.993874    1.786109   -0.378982
H      -0.758164    1.870486   -0.634162
H      -0.111940    1.643240    1.009662
H       1.301637   -0.735435    1.260539
H       1.117222   -1.813416   -0.143550
H       2.075785   -0.329301   -0.291386
H      -2.732075    0.857478    0.394776
H      -4.412287   -1.301982    0.304907
H      -2.767240   -3.428407   -0.274023
