18

C       0.060353    1.612805   -0.017465
C      -0.016797    0.116429    0.050487
C      -0.889102   -0.671620    0.978156
C       0.604347   -0.884818    1.003760
N       1.264819   -1.676625   -0.112937
C       0.283480   -2.236383   -1.041081
C      -0.935573   -3.062828   -0.744692
O      -1.067966   -3.794206    0.201989
C       0.538988   -0.770160   -1.084420
H       1.042122    1.947921   -0.371160
H      -0.696559    2.020650   -0.698796
H      -0.109438    2.055426    0.968736
H      -1.229489   -0.103616    1.840461
H      -1.611743   -1.404896    0.645730
H       1.197400   -0.742806    1.897787
H       0.807989   -2.738393   -1.862854
H      -1.696894   -3.019934   -1.558469
H       1.076212   -0.332036   -1.921767
