19

C      -0.027955   -1.240164   -0.069936
C      -0.012992   -0.041835    0.016771
C       0.008722    1.413094    0.097120
C       1.421648    2.008807    0.037681
C       1.410438    3.536436   -0.098681
C       2.785868    4.089781    0.169691
C       3.725748    3.358295    0.762655
C       3.454705    1.960272    1.244743
O       2.079743    1.627734    1.235593
H      -0.042038   -2.299585   -0.135729
H      -0.585741    1.837744   -0.721594
H      -0.457810    1.744356    1.033256
H       1.954333    1.580180   -0.827092
H       1.078760    3.814207   -1.107440
H       0.677802    3.969917    0.597479
H       2.993896    5.107667   -0.148528
H       4.728725    3.744857    0.922541
H       4.032395    1.234044    0.643214
H       3.786526    1.841469    2.283141
