17

C       0.163616    1.431335    0.215944
N      -0.088649    0.037256   -0.080329
C      -1.293898   -0.546848    0.078401
O      -2.313420   -0.008900    0.477916
C      -1.271931   -2.037102   -0.317115
O      -0.246006   -2.565162   -0.705126
C      -2.557359   -2.762838   -0.194844
C      -2.959652   -3.587717   -1.387747
N      -2.498137   -4.234703   -0.173089
H       0.922439    1.538325    0.998595
H       0.502738    1.969824   -0.675567
H      -0.772564    1.870229    0.563982
H       0.647191   -0.565128   -0.420821
H      -3.320981   -2.290214    0.408416
H      -4.019464   -3.685788   -1.602732
H      -2.300666   -3.560967   -2.251200
H      -1.519121   -4.496877   -0.295609
