12

O      -0.006288    1.431274    0.007378
C       0.010791    0.020915    0.002323
C      -1.409647   -0.473878    0.012246
C      -2.521341    0.366101    0.023933
N      -3.743156   -0.146907    0.032070
N      -3.875878   -1.471795    0.028857
N      -2.828774   -2.266600    0.017883
N      -1.589118   -1.789770    0.009474
H       0.899860    1.751319    0.001133
H       0.510818   -0.392184   -0.887285
H       0.525330   -0.398369    0.880685
H      -2.429250    1.445693    0.026710
