18

O       0.108908    1.358772   -0.180941
C       0.035330   -0.049484    0.011944
C       0.596384   -0.480248    1.397009
C      -0.639030   -0.795009    2.207948
C      -1.728867   -0.855272    1.440189
C      -1.416246   -0.567539    0.016634
C      -2.431695   -0.010753   -0.955068
C      -1.959257   -1.428851   -1.108663
H      -0.480304    1.767217    0.463471
H       0.618151   -0.467733   -0.812593
H       1.246174   -1.362021    1.313438
H       1.212558    0.323429    1.815017
H      -0.613707   -0.978701    3.275985
H      -2.732046   -1.092051    1.779016
H      -3.441032    0.158857   -0.594147
H      -2.073353    0.731957   -1.659080
H      -1.288611   -1.659725   -1.930155
H      -2.640124   -2.232739   -0.848536
