17

C       0.502026    0.922775   -0.162637
C      -0.360285   -0.033795    0.626498
O      -0.075153   -0.427644    1.733007
C      -1.626183   -0.545059   -0.085466
C      -1.352305   -1.978574   -0.550340
O      -0.978150   -2.215480   -1.674473
C      -1.533392   -3.060428    0.501350
C      -0.988582   -4.406794    0.065994
O      -1.591059   -5.440826    0.183174
H       1.412860    1.156505    0.389100
H       0.747210    0.477167   -1.133874
H      -0.055071    1.843566   -0.370537
H      -2.446851   -0.528980    0.636275
H      -1.868193    0.061307   -0.959209
H      -1.020789   -2.727003    1.416221
H      -2.594877   -3.158643    0.756588
H       0.035374   -4.375058   -0.361008
