18

C       0.160474    1.344558    0.414256
N      -0.029707   -0.069748    0.091008
C       0.490346   -0.441591   -1.213206
C       2.035465   -0.509555   -1.291930
O       2.742505   -0.427036   -0.324129
C       0.007064   -1.747511   -1.667701
C      -0.321343   -2.840662   -2.054772
C      -0.727487   -4.182536   -2.472401
O       0.276635   -5.167057   -2.277725
H       1.205478    1.686143    0.378686
H      -0.427004    1.955154   -0.280969
H      -0.225336    1.529408    1.420306
H       0.435694   -0.640310    0.790352
H       0.170970    0.319463   -1.942189
H       2.444301   -0.673862   -2.312669
H      -1.662915   -4.450331   -1.955712
H      -0.947481   -4.190121   -3.545636
H       0.548668   -5.125860   -1.354857
