22

C      -0.082305    1.681556   -0.085192
C       0.115010    0.168644    0.062544
C       0.758017   -0.446917   -1.180630
C       0.927728   -1.989875   -1.309490
C       0.369882   -2.909395   -0.244926
O       0.085237   -1.978165   -2.512948
C      -0.112525   -0.610661   -2.410166
N      -0.801155    0.164199   -3.112440
C      -1.543955   -0.374607   -4.243800
H       0.878882    2.193875   -0.205158
H      -0.691408    1.902934   -0.965570
H      -0.576476    2.099592    0.796970
H       0.746945   -0.045432    0.933846
H      -0.853091   -0.307466    0.253500
H       1.687281    0.084194   -1.412924
H       1.942185   -2.292962   -1.588711
H      -0.655844   -2.641435    0.020398
H       0.370636   -3.942263   -0.605767
H       0.987309   -2.864980    0.658312
H      -1.479571   -1.464387   -4.344179
H      -2.597901   -0.091507   -4.147753
H      -1.174488    0.083723   -5.168282
