18

C      -0.018326    1.583439    0.040120
C      -0.005588    0.051506   -0.010637
C      -1.409503   -0.552744    0.189946
C      -2.082855   -0.099748    1.406414
N      -2.631427    0.273595    2.352210
C       0.792150   -0.527704   -1.230346
C       1.999921   -0.870309   -0.307063
C       1.098245   -0.553075    0.894946
O       1.158285   -0.773665    2.067937
H       0.985980    1.990968   -0.111046
H      -0.665151    1.986353   -0.747360
H      -0.387410    1.938912    1.005797
H      -2.040776   -0.287191   -0.667272
H      -1.350480   -1.646725    0.213129
H       0.325168   -1.418257   -1.657995
H       0.989216    0.185041   -2.032344
H       2.398084   -1.887055   -0.340280
H       2.837234   -0.170779   -0.392071
