15

O      -0.253626    0.132741    0.453723
C      -0.105678    1.236332    0.049937
O      -1.005905    2.029100   -0.611637
C      -0.073047    3.137556   -0.668400
C      -0.040942    4.077424   -1.815953
C      -0.508095    4.534147   -0.434911
C       1.024760    2.301976    0.000941
C       1.587322    2.754843    1.251746
C       2.046133    3.148503    2.289941
H       0.923847    4.415354   -2.179351
H      -0.798514    3.951044   -2.581562
H      -1.569719    4.708361   -0.300292
H       0.142482    5.171897    0.153939
H       1.806092    1.989041   -0.700184
H       2.451225    3.482616    3.213278
