15

O      -0.169111    1.421105   -0.086894
C      -0.095516    0.038934   -0.010662
C      -0.493183   -0.710459    1.247997
N      -1.201405    0.044008    2.252973
C      -2.303932    0.427712    1.728388
N      -2.542176   -0.018824    0.429119
C      -3.671768    0.257260   -0.311869
O      -4.608497    0.900779    0.095088
C      -1.382298   -0.751866   -0.009546
H       0.209828    1.791720    0.718308
H       0.719024   -0.416172   -0.572569
H       0.117199   -1.535113    1.596233
H      -3.045965    1.053869    2.205070
H      -3.620356   -0.186248   -1.322813
H      -1.548506   -1.604674   -0.655572
