19

O       0.306058    0.056927   -0.010387
C       0.097026    1.247849    0.009187
C      -1.216690    1.927550   -0.052794
C      -1.056039    3.254429    0.007586
C       0.386833    3.675253    0.125223
C       1.182469    2.348943    0.102160
C       2.103174    2.140862    1.286062
C       3.222501    1.139176    1.210381
C       3.536831    2.614847    1.241627
H      -2.149137    1.383338   -0.131325
H      -1.861371    3.981656   -0.018036
H       0.667402    4.353855   -0.689230
H       0.554744    4.236227    1.053427
H       1.778629    2.277766   -0.815825
H       1.604097    2.224896    2.249073
H       3.438871    0.545794    2.091261
H       3.354794    0.605092    0.276630
H       3.889535    3.079876    0.326511
H       3.968894    3.033124    2.144004
