14

O       0.515423    0.080191    0.061714
C       0.786097    1.203495   -0.229137
O       0.367868    2.252029    0.531648
C       0.832135    3.544416    0.227813
C       2.226389    3.976298    0.694012
N       3.175436    3.195752   -0.096480
C       2.601337    4.457915   -0.683526
C       1.260010    4.016910   -1.221843
O       0.677124    4.126493   -2.255883
H       1.367783    1.510308   -1.111636
H       0.062622    4.240811    0.576568
H       2.487538    4.423216    1.643697
H       4.120362    3.421741    0.212720
H       3.241070    5.273251   -0.992129
