19

C       0.068799    1.574291   -0.049644
C       0.019443    0.053136    0.073090
O       0.555528   -0.463279   -1.145064
C       0.855364   -1.853921   -1.120783
C       1.959496   -2.145826   -0.084339
C       1.661274   -1.434907    1.207755
C       0.768076   -0.451999    1.278137
C      -0.340626   -2.679759   -0.900502
C      -1.320449   -3.354832   -0.729395
H       1.104605    1.918384   -0.119133
H      -0.466759    1.894284   -0.947278
H      -0.399133    2.042592    0.821517
H      -1.036147   -0.258987    0.158310
H       1.235021   -2.067868   -2.126025
H       2.039578   -3.226793    0.075661
H       2.924134   -1.815712   -0.491627
H       2.196755   -1.759393    2.095839
H       0.535304    0.028451    2.224952
H      -2.185688   -3.952981   -0.582310
