9

N       0.030377   -1.132704   -0.003699
C      -0.003326    0.021930    0.002857
C      -0.047874    1.463248    0.011059
N      -1.240509    2.053225    0.030094
C      -1.150905    3.377694    0.036055
N      -0.012263    4.080313    0.024756
N       1.128522    3.412804    0.006030
N       1.137232    2.093101   -0.001209
H      -2.072621    3.952093    0.051373
