21

O      -0.126651    0.043361    0.260754
C       0.008394    1.194656   -0.075964
C       1.272540    1.965322    0.002128
C       1.096655    3.463208    0.210989
C       1.478040    2.971510   -1.146317
C       2.882687    3.196230   -1.710236
C       3.902666    2.130281   -1.278922
C       3.818743    1.851710    0.224731
C       2.464329    1.227103    0.588195
H      -0.851262    1.774687   -0.491053
H       0.090547    3.838975    0.369494
H       1.856263    3.957148    0.808242
H       0.680445    2.987727   -1.883946
H       2.825719    3.228315   -2.802748
H       3.240979    4.184459   -1.395456
H       3.712626    1.196215   -1.823910
H       4.909873    2.457501   -1.558065
H       4.618823    1.171586    0.534922
H       3.978357    2.785268    0.781297
H       2.351864    1.152388    1.676010
H       2.428381    0.198270    0.212389
