19

C      -0.014003    1.588374    0.050330
C       0.013365    0.058952   -0.013100
C      -1.391403   -0.551792    0.009351
C      -1.401832   -2.096657   -0.032170
C      -2.850144   -2.643360    0.091705
C      -2.910589   -4.095175    0.240645
N      -2.949720   -5.241479    0.376515
C      -0.768904   -2.593735   -1.258523
N      -0.277703   -2.958274   -2.238827
H       0.999278    1.999482    0.034159
H      -0.558105    2.010248   -0.801539
H      -0.502735    1.941405    0.965126
H       0.534957   -0.264455   -0.921083
H       0.591751   -0.335412    0.832486
H      -1.914145   -0.242707    0.923126
H      -1.978696   -0.170091   -0.835054
H      -0.819315   -2.477753    0.815288
H      -3.321591   -2.183644    0.966744
H      -3.435535   -2.347115   -0.784904
