15

O       0.298720    1.166242   -1.599593
C       0.315526    1.034426   -0.405790
C       1.034441    2.021788    0.523681
O       1.560270    1.575011    1.517707
C       1.167416    3.441796    0.066063
C       2.097757    4.351539    0.866281
C       2.542554    3.869817   -0.462891
C      -0.042396    4.078363   -0.512318
O      -1.150027    3.606810   -0.446898
H      -0.075781    0.141558    0.122910
H       1.797490    5.387976    0.972691
H       2.514188    3.888702    1.753338
H       3.295235    3.091608   -0.511425
H       2.538909    4.554850   -1.304598
H       0.144068    5.068096   -0.988500
