23

C       0.057009    1.791310    0.705667
C      -0.269213    0.315832    0.668822
N       0.310428   -0.491288   -0.422345
C       0.691499   -0.784538    0.979950
C       2.138780   -0.469652    1.318590
C       0.200686   -2.085729    1.593184
C       0.834646   -3.339095    1.013188
C      -0.199466   -2.087510    3.025245
N      -1.213105   -2.281544    1.970906
H       1.082391    1.988421    0.389369
H      -0.607758    2.338550    0.028743
H      -0.081626    2.198503    1.713370
H      -1.315927    0.117280    0.896714
H      -0.373853   -1.173779   -0.742650
H       2.487447    0.413453    0.782114
H       2.259650   -0.298925    2.393702
H       2.793449   -1.299048    1.034970
H       1.909047   -3.380372    1.215844
H       0.366051   -4.224443    1.448352
H       0.696499   -3.382474   -0.072668
H      -0.006524   -2.958252    3.646849
H      -0.187228   -1.139466    3.557401
H      -1.746489   -1.423678    1.863672
