17

C      -0.005087    1.538217    0.029925
C      -0.009038    0.033303   -0.012615
C      -0.048553   -0.701407   -1.198728
C      -0.049217   -2.091630   -1.212123
C      -0.011171   -2.813029   -0.011925
N      -0.074328   -4.207727   -0.007711
C       0.029953   -2.098574    1.192757
C       0.029519   -0.715581    1.161881
F       0.071850   -0.056830    2.332055
H       0.890673    1.926976    0.527047
H      -0.037099    1.953120   -0.980762
H      -0.865892    1.929551    0.583505
H      -0.076998   -0.165177   -2.142853
H      -0.083680   -2.625171   -2.156890
H       0.255556   -4.645256   -0.855711
H       0.321759   -4.647579    0.810223
H       0.057586   -2.605817    2.150874
