19

C      -0.156317    1.474400   -0.037769
C       0.072696   -0.003257   -0.030313
C       0.559187   -0.958274   -1.127653
C       0.014252   -1.802820    0.057136
C       0.397380   -3.214559    0.393079
C       1.889547   -2.905445    0.824306
O       2.043507   -1.473894    1.076362
C       0.739822   -0.940533    1.050666
O      -1.151966   -0.889636    0.139501
H       0.798268    1.995702   -0.159509
H      -0.816576    1.760306   -0.862170
H      -0.611148    1.798115    0.903013
H      -0.055556   -0.980791   -2.028510
H       1.631112   -0.994219   -1.327228
H      -0.183733   -3.597346    1.236731
H       0.355738   -3.934409   -0.427238
H       2.158747   -3.457026    1.731042
H       2.593918   -3.176289    0.031893
H       0.286669   -0.846561    2.043775
