19

C      -0.010543    1.515399    0.224048
C       1.305519    0.796672    0.034034
C       0.012314    0.014923    0.043083
C      -0.024930   -0.630478   -1.354758
C      -0.645197    0.206020   -2.477114
O      -0.003031    1.470043   -2.620255
C       1.416028    1.452040   -2.491538
C       1.879944    0.521025   -1.368090
O       1.365646   -0.783410   -1.697975
H      -0.212459    1.861107    1.234134
H      -0.401678    2.153426   -0.554345
H       1.996517    0.740094    0.866904
H      -0.250158   -0.618029    0.882627
H      -0.480760   -1.624041   -1.335271
H      -0.567329   -0.369497   -3.412443
H      -1.701346    0.423872   -2.286970
H       1.879826    1.109819   -3.429567
H       1.715871    2.489595   -2.310883
H       2.971679    0.462976   -1.359430
