20

C      -0.049452    1.492816    0.007736
C       0.021841   -0.014840    0.010932
C      -0.763056   -0.801395    1.020562
C       0.760366   -0.792296    1.095182
C       1.435522   -1.933410    0.438065
C       0.891885   -2.106920   -0.966675
C       0.288291   -0.725623   -1.318940
N       2.372206   -2.578318    1.013314
O       2.886896   -3.589082    0.172803
H       0.861088    1.932166   -0.415826
H      -0.897760    1.845930   -0.590898
H      -0.174018    1.888654    1.020596
H      -1.277851   -0.241834    1.794601
H      -1.267173   -1.716882    0.727233
H       1.239410   -0.313051    1.939766
H       1.678708   -2.425292   -1.652697
H       0.134971   -2.899921   -0.977161
H      -0.612918   -0.806647   -1.936248
H       1.015854   -0.137682   -1.890667
H       3.599463   -3.949506    0.710417
