19

C      -0.030313    1.553003    0.145570
O       1.317554    2.010495   -0.071370
C       2.008762    0.888271   -0.625545
C       1.366035    0.573421   -1.997922
C       0.205223   -0.393442   -1.547870
C       0.880597   -1.745544   -1.387716
C       1.693786   -1.663850   -0.329859
C       1.521319   -0.297806    0.286685
C       0.042374    0.038820   -0.056441
H      -0.332680    1.820207    1.164864
H      -0.720583    2.045708   -0.554142
H       3.075003    1.111490   -0.627742
H       1.003508    1.504086   -2.441949
H       2.040238    0.088867   -2.706288
H      -0.687861   -0.359835   -2.172740
H       0.810300   -2.555147   -2.103790
H       2.402265   -2.406556    0.014261
H       1.830665   -0.172052    1.324521
H      -0.708390   -0.537187    0.486372
