20

C      -0.167046    1.589098    0.259113
C      -0.001957    0.113604    0.029175
C      -1.166652   -0.877641   -0.136189
C      -0.376544   -1.947115    0.678553
C       0.793473   -0.968149    0.819592
C       1.239403   -0.485080   -0.530026
O       1.174264   -1.285082   -1.692510
C       2.078165   -2.284727   -1.773224
N       2.140888   -2.994534   -2.815014
H       0.786651    2.066529    0.506532
H      -0.562736    2.082576   -0.636868
H      -0.863830    1.786228    1.081352
H      -2.067439   -0.542933    0.383121
H      -1.421587   -1.134796   -1.166805
H      -0.848924   -2.168941    1.637339
H      -0.157869   -2.890556    0.170191
H       1.430165   -0.862425    1.691630
H       2.106379    0.173399   -0.521896
H       2.696553   -2.384340   -0.871208
H       2.864223   -3.702626   -2.706240
