15

C       0.065930    1.465753   -0.012788
C      -0.021820   -0.024441    0.066164
N       0.623331   -0.964997   -0.979412
C       0.013737   -1.945148    0.029634
C       0.623535   -1.003033    1.118325
O       2.004031   -0.968368    1.254444
C      -1.206364   -1.008249    0.009552
O      -2.386585   -1.022539   -0.166542
H       1.107069    1.793618    0.066039
H      -0.349400    1.841463   -0.953068
H      -0.498947    1.917004    0.808688
H       0.101236   -0.960378   -1.859332
H       0.109042   -3.022218   -0.086628
H       0.174231   -1.031176    2.111255
H       2.355236   -0.963684    0.351571
