14

C       0.031347    1.533380   -0.013925
C       0.008051    0.029802   -0.031307
C       0.127518   -0.720822   -1.193308
O       0.276350   -0.183528   -2.422288
C       0.091807   -2.120964   -1.087208
N      -0.049733   -2.757782    0.062950
N      -0.166685   -2.058324    1.195577
C      -0.136170   -0.747942    1.122364
F      -0.257765   -0.112525    2.286285
H       0.974849    1.926286   -0.413055
H      -0.786640    1.955716   -0.610940
H      -0.076965    1.904580    1.004858
H       0.285936    0.778564   -2.362723
H       0.182463   -2.733984   -1.977914
