19

C       0.095737    1.517321   -0.098676
C       0.003000    0.004350    0.115305
C      -1.429565   -0.546759    0.037249
C      -2.165363   -0.514096   -1.374509
C      -2.276260   -2.038561   -1.312411
N      -0.886602   -2.546527   -1.221757
C      -1.583790   -2.091923   -0.000644
C      -2.277758    0.025384    1.079119
N      -2.942789    0.475461    1.911573
H       1.136735    1.848062   -0.041574
H      -0.290385    1.807020   -1.081802
H      -0.473014    2.064679    0.659379
H       0.585637   -0.529696   -0.640038
H       0.423230   -0.259556    1.093351
H      -3.124335    0.002344   -1.330266
H      -1.563781   -0.122981   -2.197824
H      -3.073317   -2.658519   -1.701372
H      -0.928469   -3.565079   -1.224829
H      -1.723678   -2.741948    0.853640
