21

C      -0.014291    1.658696    0.205202
C       1.436731    1.169735    0.051047
O       1.097740    0.013401    0.935251
C      -0.012315    0.120185   -0.046960
C      -1.156646   -0.822043   -0.243021
C      -1.753435   -0.469338   -1.633341
C      -0.702920   -0.387651   -2.766663
C       0.420371    0.649833   -2.508396
C       1.034081    0.281310   -1.163642
H      -0.291671    1.949346    1.219238
H      -0.431793    2.325859   -0.551074
H       2.371382    1.687933    0.267776
H      -0.777972   -1.851580   -0.243712
H      -1.917795   -0.745614    0.540597
H      -2.515136   -1.209973   -1.897738
H      -2.274242    0.494177   -1.558693
H      -0.243902   -1.377279   -2.897196
H      -1.212329   -0.158261   -3.709073
H       1.157032    0.619298   -3.318281
H      -0.003726    1.659543   -2.506913
H       1.677518   -0.600872   -1.237280
