18

C      -0.025554    1.570161    0.111635
N       0.077149    0.131467    0.174592
C      -1.149665   -0.691885    0.274675
C      -0.425075   -1.599019    1.292116
N       0.538815   -2.536648    0.661291
C       1.689262   -1.648281    0.979650
C       2.626921   -1.406609   -0.116236
N       3.394048   -1.202024   -0.955814
C       0.681735   -0.510696    1.343339
H       0.974938    2.013675    0.107679
H      -0.519244    1.859929   -0.821433
H      -0.598410    2.010417    0.950238
H      -1.995926   -0.154698    0.733202
H      -1.469827   -1.155818   -0.663429
H      -0.977688   -1.971176    2.154954
H       0.596237   -3.452045    1.090190
H       2.260280   -1.961803    1.864032
H       0.921319    0.126579    2.198176
