17

N       0.110623    1.389095    0.126753
C      -0.045849    0.021956    0.026331
C      -1.129291   -0.767726    0.017473
C      -2.626368   -0.832089    0.031743
C      -2.850290   -2.402484   -0.011721
N      -1.536400   -3.080499   -0.035142
C      -0.678886   -2.142791   -0.015599
O       0.675503   -2.229834   -0.027960
C       1.176863   -0.886637    0.012434
H       0.947383    1.769306   -0.292382
H      -0.706773    1.936669   -0.099591
H      -3.064761   -0.387047    0.931668
H      -3.088508   -0.334056   -0.828082
H      -3.421495   -2.743401    0.859228
H      -3.426023   -2.694098   -0.897604
H       1.815611   -0.718308   -0.866300
H       1.795842   -0.758804    0.910349
