14

N      -0.025985    1.454323   -0.156472
C      -0.023878    0.078217   -0.085875
C      -1.178944   -0.691801   -0.068671
O      -2.372099   -0.035057   -0.061359
C      -1.046602   -2.084075   -0.054267
N       0.117996   -2.719170   -0.049880
N       1.236137   -1.991815   -0.056556
C       1.165303   -0.674007   -0.073272
O       2.328796    0.019840   -0.070369
H       0.825438    1.899183    0.150182
H      -0.872540    1.902318    0.159475
H      -3.090806   -0.675412   -0.031158
H      -1.931948   -2.717335   -0.044185
H       3.031511   -0.645798   -0.047420
