16

C       0.019648    1.545495    0.082821
C      -0.022506    0.055592   -0.058198
C       0.671760   -0.786515   -1.175336
C      -0.242937   -1.935878   -0.627607
C       0.278330   -2.022167    0.814743
O       0.414199   -0.613933    1.144495
C      -1.267516   -0.790212   -0.437420
O      -2.425766   -0.607670   -0.656562
H       1.040397    1.888807    0.275684
H      -0.346754    2.023621   -0.829521
H      -0.612289    1.862535    0.917144
H       0.417811   -0.471489   -2.189173
H       1.748429   -0.922104   -1.051834
H      -0.459030   -2.854314   -1.166969
H      -0.426952   -2.503979    1.501322
H       1.253335   -2.516287    0.897091
