21

C       0.211002    1.566310   -0.001603
C       0.027635    0.043197    0.016154
C       0.541999   -0.595374   -1.292798
C       0.675439   -2.114166   -1.242600
C       2.045891   -2.702876   -0.974410
O       3.161990   -1.877726   -0.843312
C       0.979471   -2.759496    0.101537
C       1.091563   -1.853885    1.270584
C       0.680296   -0.583039    1.230446
H       1.272640    1.832365   -0.060221
H      -0.292744    2.012258   -0.865359
H      -0.200641    2.027557    0.902458
H      -1.052526   -0.158851    0.093989
H      -0.119543   -0.311056   -2.117256
H       1.525437   -0.164908   -1.521436
H       0.032158   -2.674966   -1.912990
H       2.311266   -3.629728   -1.473411
H       3.054707   -1.363180   -0.032971
H       0.556452   -3.739478    0.305636
H       1.526219   -2.259601    2.181694
H       0.771981    0.041249    2.117238
