17

C      -0.059290    1.515103    0.054618
C      -0.011686    0.001494   -0.058328
C       0.854122   -0.490426   -1.211193
N       0.927640   -1.940218   -1.152890
C       0.912527   -2.646261    0.008314
O       1.050536   -3.853122    0.066085
C       0.732837   -1.825928    1.288146
N       0.849837   -2.345450    2.431817
O       0.511438   -0.490822    1.184225
H       0.946856    1.923939    0.185021
H      -0.505026    1.952364   -0.843519
H      -0.661132    1.804698    0.918763
H      -1.027080   -0.399279   -0.190429
H       0.403546   -0.191638   -2.162731
H       1.850977   -0.030572   -1.149673
H       1.147558   -2.471440   -1.982987
H       1.051037   -3.339198    2.296234
