16

C       0.007257    1.508122    0.004578
C       0.013546    0.053678    0.040395
C       0.014566   -1.149037    0.069742
C       0.008552   -2.608040    0.104693
N      -1.328545   -3.190615    0.000475
C      -2.206384   -3.469485    1.010069
N      -3.329871   -3.941013    0.535930
N      -3.208362   -3.973502   -0.841239
C      -2.017301   -3.520041   -1.132992
H       0.592085    1.886851   -0.840285
H      -1.013821    1.890509   -0.098112
H       0.430820    1.929567    0.922309
H       0.613257   -3.016024   -0.712582
H       0.458539   -2.973548    1.034187
H      -1.970799   -3.313951    2.051740
H      -1.602436   -3.412419   -2.123483
