16

N       0.591708    0.722463   -0.231229
C      -0.130480   -0.222523    0.425312
O       0.205244   -0.683412    1.500370
C      -1.412168   -0.671316   -0.291192
C      -1.345228   -2.169154   -0.605572
O      -1.153170   -2.561619   -1.732128
C      -1.521249   -3.109551    0.572929
C      -1.183781   -4.547216    0.236429
O      -1.874668   -5.485843    0.534377
H       1.471286    1.008822    0.168196
H       0.358179    1.031163   -1.158075
H      -2.242014   -0.472602    0.394442
H      -1.576883   -0.135669   -1.227601
H      -0.872121   -2.746289    1.383685
H      -2.550675   -3.050546    0.945605
H      -0.220656   -4.682190   -0.298879
