20

C      -0.079293    1.581584    0.227105
C       0.005289    0.064530    0.144464
C       0.809225   -0.583042   -1.047505
C       1.707282   -1.281124   -0.016283
N       2.335748   -0.207971    0.783476
C       0.957389   -0.659531    1.111810
C       2.337329   -2.618429   -0.129128
C       3.785418   -2.785478   -0.331967
O       3.191597   -3.000433    0.954159
H       0.922941    2.018043    0.225019
H      -0.637241    1.991771   -0.621773
H      -0.588830    1.898373    1.144111
H      -0.992943   -0.381103    0.198186
H       0.201952   -1.273796   -1.637844
H       1.330434    0.108614   -1.714677
H       2.949345   -0.687485    1.445464
H       0.736718   -1.054217    2.096783
H       1.681735   -3.415260   -0.484089
H       4.162772   -3.681039   -0.822285
H       4.415412   -1.901690   -0.409850
