14

C      -0.024207    1.542775    0.099546
C       0.007298    0.062057   -0.077229
C      -0.004430   -0.783980   -1.159848
O      -0.045296   -0.834624   -2.524997
C      -0.017945   -2.197997   -2.761735
N       0.033756   -2.985245   -1.741563
C       0.044056   -2.093254   -0.671059
N       0.086267   -2.146521    0.655121
N       0.062379   -0.825577    0.976031
H       0.873846    1.911602    0.607900
H      -0.078408    2.030259   -0.875788
H      -0.894325    1.864635    0.682765
H      -0.043101   -2.475682   -3.804720
H       0.085776   -0.577724    1.951333
