18

C       0.345169    1.390438   -0.058814
C      -0.010851   -0.082225   -0.032257
C      -1.454836   -0.403593    0.359087
C      -1.797816    0.066924    1.696953
C      -2.057621    0.463186    2.801401
C       0.697226   -1.018274   -0.976568
N       0.973802   -1.044610    0.441679
C       2.207892   -0.770191    1.003391
O       3.268270   -1.117359    0.543167
H       1.392478    1.538821   -0.335423
H      -0.279140    1.915356   -0.789456
H       0.171531    1.850549    0.918151
H      -2.130332    0.050718   -0.377701
H      -1.602860   -1.487400    0.301084
H      -2.299285    0.803115    3.778044
H       0.174132   -1.883179   -1.376950
H       1.470752   -0.608367   -1.621360
H       2.106688   -0.250440    1.974773
