15

N       0.084205    1.381414    0.012646
C       0.024715    0.002082    0.018219
C      -1.120466   -0.727076    0.093605
N      -1.071232   -2.103039    0.156364
N       0.048591   -2.823825    0.145480
C       1.171700   -2.165116    0.062619
C       1.286686   -0.722849   -0.013262
N       2.374485   -0.020484   -0.114382
O       3.513223   -0.857098   -0.162808
H       0.970895    1.728454   -0.328351
H      -0.720701    1.869721   -0.348345
H      -2.110273   -0.289117    0.116577
H      -1.916232   -2.643767    0.221123
H       2.070478   -2.765671    0.049439
H       4.229338   -0.216223   -0.200699
