16

N       0.158010   -1.169894   -0.003134
C       0.095005   -0.014311    0.002485
C      -0.034717    1.412176    0.010227
C      -0.725195    2.325195    1.084159
C       0.646394    3.002613    1.242306
N       1.191801    2.338959    0.000669
C       0.618861    3.013637   -1.222488
C      -0.748914    2.334680   -1.039822
N      -1.530051    3.019810    0.034103
H      -1.272189    1.976239    1.959923
H       0.661362    4.094867    1.225778
H       1.197182    2.634848    2.112880
H       0.634278    4.105701   -1.196516
H       1.150035    2.653746   -2.108404
H      -1.315361    1.993521   -1.906242
H      -2.473030    2.640375    0.042934
