17

C      -0.565426    0.894043   -0.186824
N       0.640649    0.085658    0.124853
H       1.243885    0.572898    0.783134
H       0.315822   -0.885705    0.514211
C       1.414139   -0.391743   -1.088205
C       0.993937   -1.827919   -1.236825
N       0.251950   -2.267612   -0.235113
O       0.016251   -3.605427   -0.579616
C       0.678526   -3.825474   -1.826269
N       0.657215   -4.948249   -2.422452
N       1.294984   -2.650097   -2.215088
H      -0.279166    1.818281   -0.691459
H      -1.204154    0.288753   -0.830702
H      -1.092561    1.120673    0.741386
H       1.161198    0.225711   -1.952763
H       2.483327   -0.288889   -0.887163
H       0.116064   -5.618018   -1.878554
