18

C      -0.097273    1.801409    0.165989
C      -0.096006    0.274576    0.008245
C       0.681395   -0.427501    1.144540
C       2.163961   -0.147429    1.078186
O       2.823514    0.329332    1.965401
C      -1.511832   -0.259945   -0.049504
C      -2.191269   -0.552562   -1.317061
O      -1.666367   -1.605154   -0.502667
H       0.921452    2.198353    0.202782
H      -0.619263    2.282737   -0.666631
H      -0.597536    2.098373    1.094651
H       0.387102    0.011074   -0.942454
H       0.308669   -0.129956    2.129841
H       0.543710   -1.511577    1.030182
H       2.632988   -0.423067    0.102928
H      -2.133280   -0.010967    0.814275
H      -3.277461   -0.506171   -1.378387
H      -1.665896   -0.384912   -2.256645
