13

N       0.028718    1.336703   -0.132387
C      -0.007347   -0.034863   -0.028154
N      -1.106131   -0.748844    0.013354
N      -0.614722   -2.046337   -0.006517
C      -1.012987   -3.355415    0.006479
N       0.055360   -4.123742   -0.013196
N       1.201509   -3.330160   -0.033368
C       0.740068   -2.107629   -0.029605
N       1.154109   -0.786166   -0.020740
H       0.686820    1.791229    0.487292
H      -0.895652    1.740247   -0.054533
H      -2.038540   -3.681274    0.031209
H       2.072590   -0.455780   -0.260116
