17

C      -0.005288    1.475214   -0.013037
C      -0.016838   -0.026980    0.049398
N      -0.030143   -0.643605    1.164175
N      -0.006330   -0.672410   -1.192521
C      -0.017393   -2.111934   -1.514169
C       0.013370   -1.721072   -3.015013
O      -1.103354   -2.175939   -3.731007
C      -0.051739   -0.254254   -2.520896
O      -0.145641    0.824119   -3.040261
H       0.890952    1.835754   -0.526818
H      -0.861378    1.848120   -0.581829
H      -0.030911    1.863510    1.004469
H      -0.039622   -1.657651    1.036986
H       0.853542   -2.655495   -1.139177
H      -0.943155   -2.616633   -1.226370
H       0.962567   -1.962364   -3.512503
H      -1.207323   -1.609257   -4.504046
