23

C      -0.029411    1.844591    0.774917
C      -0.070694    0.325968    0.594438
O       0.281046   -0.051584   -0.736956
C       0.785887   -0.412944    1.598514
C       2.339580   -0.318976    1.771578
C       1.859930   -1.358845    2.823361
C       0.706950   -0.370394    3.158082
C       0.965169   -1.968584    1.697259
C      -0.204109   -2.893345    1.999056
H       0.995513    2.221141    0.672669
H      -0.648892    2.328748    0.015365
H      -0.395888    2.137203    1.763939
H      -1.107497   -0.017059    0.707542
H       1.201298    0.201395   -0.871799
H       2.953283   -0.704284    0.951061
H       2.735828    0.621925    2.163428
H       2.486934   -1.900212    3.533638
H       1.002042    0.570704    3.631022
H      -0.190240   -0.772471    3.630786
H       1.545948   -2.376816    0.862311
H      -0.832465   -2.551194    2.825483
H      -0.844229   -2.996307    1.115937
H       0.158921   -3.894923    2.255595
