13

C       0.142977    1.367889    0.083127
O       0.214376   -0.065058    0.038280
C       0.737899   -0.571596   -1.083161
O       1.136624    0.066626   -2.020105
C       0.769877   -2.065734   -1.033447
N       0.335399   -2.761329   -0.011858
O       0.559591   -4.076404   -0.403157
C       1.106946   -4.017103   -1.623465
N       1.266674   -2.817507   -2.075550
H       1.141024    1.803282   -0.007472
H      -0.482947    1.744823   -0.729358
H      -0.295943    1.608451    1.050532
H       1.354750   -4.955139   -2.097599
