19

C      -0.044652    1.567130   -0.117055
C       0.006906    0.046192   -0.087286
O      -1.202103   -0.497950   -0.557580
C       1.303094   -0.634536   -0.602806
O       1.999779   -0.032747    0.570143
C       0.745427   -0.610378    1.132579
C       1.073414   -1.908347    0.301812
C       0.079135   -3.011150    0.004916
O       2.258588   -2.542532    0.689386
H       0.895283    2.007047    0.211469
H      -0.269914    1.910268   -1.131968
H      -0.843793    1.928748    0.543405
H      -1.920504    0.064235   -0.251392
H       1.798586   -0.542315   -1.571297
H       0.587557   -0.486259    2.206191
H      -0.891945   -2.633002   -0.297477
H       0.486453   -3.649045   -0.785565
H      -0.028718   -3.632772    0.899336
H       2.878437   -1.822127    0.876809
