19

O       0.408935    0.142176   -0.827910
C      -0.296954    0.514662    0.347513
C      -1.607949   -0.123766    0.463410
C      -2.663190   -0.699717    0.536374
C      -3.939749   -1.398083    0.613689
C      -3.940227   -2.753250   -0.116514
O      -2.928850   -3.635756    0.368488
C      -5.299925   -3.453779   -0.030796
O      -5.249629   -4.717843   -0.649760
H       0.402083   -0.819771   -0.873389
H       0.293324    0.301362    1.253467
H      -0.409011    1.603480    0.295026
H      -4.212722   -1.562562    1.667090
H      -4.739155   -0.775289    0.190922
H      -3.688665   -2.599501   -1.171110
H      -2.983934   -3.654015    1.331465
H      -5.595450   -3.533473    1.032797
H      -6.070084   -2.864143   -0.540634
H      -4.397871   -5.094156   -0.390723
