18

O      -0.052146    1.415956    0.151311
C      -0.053010   -0.007912    0.171105
C      -1.413654   -0.501181    0.001703
C      -2.532514   -0.923376   -0.135039
C      -3.883050   -1.453704   -0.305636
C      -3.950892   -2.967934   -0.161667
C      -4.088472   -3.593108    1.200153
C      -5.248035   -3.624238    0.232559
H       0.860007    1.701951    0.265166
H       0.582104   -0.415327   -0.632858
H       0.354835   -0.390894    1.121157
H      -4.553591   -0.992797    0.432122
H      -4.270382   -1.159992   -1.290638
H      -3.333775   -3.504162   -0.876466
H      -3.558254   -4.517188    1.401253
H      -4.160018   -2.928787    2.055212
H      -6.098917   -2.983222    0.440727
H      -5.510329   -4.568498   -0.231557
