17

C       0.025233    1.489740   -0.115616
N      -0.032952    0.047502    0.049464
C      -1.400393   -0.505078    0.249469
C      -1.174149   -1.386898    1.470514
C      -0.247806   -0.624224    2.466343
O       0.441093   -1.862593    2.843442
C       0.275263   -1.961627    1.391463
C       0.672488   -0.477451    1.194856
H       1.067967    1.806270   -0.218523
H      -0.501419    1.776945   -1.031141
H      -0.422559    2.054030    0.723871
H      -2.132983    0.289361    0.449827
H      -1.740944   -1.062556   -0.630880
H      -1.976517   -2.012114    1.858595
H      -0.506307    0.075629    3.261195
H       0.643728   -2.853836    0.885496
H       1.711542   -0.170357    1.304366
