17

C      -0.243366    1.456732    0.225706
N       0.206713    0.086284   -0.011216
C       0.869150   -0.546533    1.056048
C       2.313079   -0.115472    1.435900
N       2.615707   -0.950025    2.638579
C       1.708504   -1.829834    2.565974
O       0.645122   -1.913050    3.466273
C      -0.060656   -1.385244    2.241977
C       0.840947   -2.006744    1.277039
H       0.617218    2.095235    0.444150
H      -0.717413    1.839530   -0.681578
H      -0.952654    1.547138    1.062964
H      -0.535560   -0.485331   -0.394729
H       2.984268   -0.248360    0.574163
H       2.393593    0.922604    1.772328
H      -1.140719   -1.329796    2.319173
H       0.763932   -2.865867    0.617844
