19

C       0.085955    1.506080   -0.207893
C       0.075000    0.006972   -0.008923
C       1.367461   -0.796727   -0.063695
C       0.636132   -0.635724    1.228515
C       1.071008    0.049942    2.526553
C       0.083604   -0.931141    3.231954
N       0.011486   -1.733164    1.984608
C       0.570208   -1.659111    4.404287
N       0.956662   -2.214804    5.341037
H       0.977090    1.959262    0.239200
H       0.089939    1.761036   -1.273200
H      -0.791693    1.981179    0.245105
H      -0.793703   -0.498107   -0.429190
H       1.347105   -1.775160   -0.532517
H       2.298610   -0.252803   -0.195677
H       2.112949   -0.129821    2.795781
H       0.838335    1.109191    2.638348
H      -0.854806   -0.431687    3.503379
H      -0.932681   -1.979412    1.703555
