16

O      -0.082272    1.427304   -0.003048
C       0.019429    0.004274    0.016420
C       0.691022   -0.541299   -1.258066
C      -0.053105   -0.092440   -2.530055
C       0.590916   -0.558818   -3.750731
C       1.142824   -0.954699   -4.742494
C       0.707809   -0.472019    1.218733
C       1.313377   -0.839476    2.190035
H       0.792725    1.782331    0.190902
H      -1.021352   -0.344192    0.040474
H       1.729518   -0.193173   -1.292252
H       0.725165   -1.634167   -1.205490
H      -1.087249   -0.461036   -2.496888
H      -0.120872    1.000908   -2.532082
H       1.619492   -1.298480   -5.626609
H       1.830640   -1.169168    3.057283
