21

C      -1.012592    1.047701    0.499405
C      -0.718355   -0.370743    0.361790
C      -0.475057   -1.546596    0.251431
C      -0.182417   -2.943316    0.103140
C       0.655539   -3.856264    1.061278
C       0.206943   -4.784443   -0.101791
C      -1.199104   -4.134431    0.028842
C       0.612847   -3.630543   -1.074192
C       0.122256   -3.557985   -2.510360
H      -0.487038    1.639656   -0.258456
H      -2.084717    1.245262    0.387746
H      -0.707930    1.424522    1.482336
H       1.722514   -3.628498    1.133130
H       0.215032   -4.048872    2.042675
H       0.430925   -5.845409   -0.213953
H      -1.747002   -4.343289    0.951401
H      -1.865204   -4.168804   -0.833567
H       1.683607   -3.396982   -1.039122
H      -0.935157   -3.808501   -2.624561
H       0.267693   -2.547746   -2.908268
H       0.695258   -4.245591   -3.142384
