20

C      -0.105657    1.546364   -0.029114
C       0.011713    0.023006    0.033411
C       0.877763   -0.596829   -1.147995
C       1.884518   -1.310546   -0.266553
C       3.112768   -2.189031    0.029329
N       2.654132   -1.846255    1.457720
C       2.253829   -0.435400    0.957901
C       0.761485   -0.491261    1.306807
C       1.185538   -1.924190    0.972813
H       0.882341    2.020961   -0.019358
H      -0.618615    1.868079   -0.941426
H      -0.669540    1.936015    0.825350
H      -0.995546   -0.409649    0.010740
H       0.290265   -1.262930   -1.786213
H       1.316191    0.183829   -1.777455
H       3.052818   -3.257361   -0.202771
H       4.103944   -1.794242   -0.216533
H       2.965923    0.390997    0.990683
H       0.357981   -0.193146    2.276605
H       0.624990   -2.859911    1.020303
