21

C       0.662701    0.145641   -0.808780
C      -0.371972    0.249572    0.318188
O      -0.540012    1.595253    0.733559
C      -1.744780   -0.401879   -0.003603
C      -2.344558    0.065107   -1.331822
O      -2.398441    1.491913   -1.338124
C      -1.691655   -1.941433    0.023102
C      -1.403288   -2.491457    1.403799
O      -0.584305   -3.337251    1.652208
H       1.605861    0.580314   -0.468679
H       0.853112   -0.891936   -1.103413
H       0.338551    0.704496   -1.692580
H       0.034604   -0.267449    1.197575
H      -1.062317    2.025986    0.043889
H      -2.419711   -0.065925    0.795262
H      -1.735675   -0.303186   -2.170126
H      -3.354260   -0.357178   -1.446806
H      -2.642068    1.791881   -2.218411
H      -2.676129   -2.337940   -0.269300
H      -0.954200   -2.348116   -0.675022
H      -2.037497   -2.051951    2.209724
