25

C      -0.069943    1.547324    0.062135
C      -0.002996    0.029131   -0.011854
C       0.675413   -0.485216   -1.287951
C       0.859853   -2.012424   -1.252595
C       1.546034   -2.537923   -2.516790
C       1.553776   -2.441243    0.065347
C       3.041307   -2.070780    0.159779
C       0.765935   -1.828124    1.233417
O       0.697126   -0.415166    1.146346
H       0.937832    1.974076    0.041442
H      -0.634842    1.949689   -0.784256
H      -0.556049    1.863862    0.988867
H      -1.029762   -0.381400    0.022848
H       0.074048   -0.200742   -2.160454
H       1.647834    0.011906   -1.398583
H      -0.147433   -2.455477   -1.219699
H       2.528057   -2.077988   -2.667497
H       1.688865   -3.623346   -2.470025
H       0.943090   -2.318387   -3.404527
H       1.467604   -3.533771    0.149296
H       3.182684   -0.986730    0.167997
H       3.468541   -2.461393    1.089644
H       3.620601   -2.487894   -0.668271
H      -0.253291   -2.252477    1.258678
H       1.245979   -2.049966    2.192277
