25

C      -0.094344    1.569418    0.068424
C      -0.017641    0.035683   -0.035269
C      -1.421301   -0.547530    0.205034
C       0.664851   -0.493110   -1.342304
C       0.664057   -2.034777   -1.346690
C      -0.032960    0.018001   -2.615624
C       2.150953   -0.008549   -1.341530
C       2.949258   -0.473783   -2.470108
C       3.608447   -0.851803   -3.402508
H       0.878809    2.056274   -0.034672
H      -0.762785    1.991796   -0.689013
H      -0.494060    1.854737    1.046894
H       0.617714   -0.313861    0.792317
H      -2.115933   -0.275131   -0.596971
H      -1.413336   -1.636413    0.288322
H      -1.834346   -0.151268    1.138429
H      -0.342086   -2.437627   -1.487548
H       1.289169   -2.414169   -2.159543
H       1.058781   -2.435142   -0.405319
H       0.002520    1.109117   -2.691103
H       0.458719   -0.388055   -3.504066
H      -1.082557   -0.288728   -2.646499
H       2.182037    1.086272   -1.332006
H       2.628481   -0.337249   -0.408566
H       4.196213   -1.182711   -4.222393
