19

C      -0.119591    1.409390   -0.119179
C       0.045252   -0.108697   -0.101500
C       0.750016   -0.657272   -1.323718
O       1.065035    0.008053   -2.277638
C       1.073623   -2.195859   -1.336028
N       1.495711   -2.699960   -2.626274
C       0.386001   -2.897831   -3.559547
C       2.097487   -2.451160   -0.309052
N       2.899483   -2.605885    0.508589
H       0.853414    1.906618   -0.142464
H      -0.674027    1.731636   -1.003824
H      -0.657281    1.746007    0.770863
H       0.594553   -0.446485    0.786753
H      -0.930446   -0.613307   -0.040796
H       0.166790   -2.731375   -1.024807
H       2.148395   -2.029087   -3.021682
H      -0.223270   -1.998635   -3.736867
H       0.791489   -3.229831   -4.518374
H      -0.267047   -3.693012   -3.183405
