13

O      -0.130380    0.073807   -0.210422
C      -0.036521    1.231307    0.019272
O      -0.995722    2.089874    0.521926
C      -0.082405    3.232009    0.563019
C       0.993220    2.353275   -0.069238
O       2.346111    2.279185    0.268087
C       2.018965    2.624003   -1.096953
C       2.343159    1.678704   -2.125446
C       2.624207    0.917487   -3.010793
H      -0.463647    4.062239   -0.034255
H       0.119724    3.541379    1.590584
H       2.206168    3.670462   -1.335548
H       2.861734    0.228430   -3.784065
