18

C       0.022220    1.494159   -0.078403
C       0.030492   -0.000803    0.022062
O       0.422996   -0.621709   -1.196008
C       0.346344   -2.021758   -0.907271
C      -0.099803   -1.978930    0.550035
O      -0.373671   -3.154387    1.236839
C       0.639773   -0.768451    1.232920
N      -0.584037   -0.419100    2.043168
C      -1.123459   -0.814373    0.689868
H       1.019298    1.866478   -0.332366
H      -0.670903    1.821529   -0.859216
H      -0.287136    1.918744    0.878736
H      -0.383111   -2.514718   -1.561461
H       1.327031   -2.496273   -1.049488
H       0.438730   -3.666806    1.312851
H       1.653423   -0.718670    1.636206
H      -0.767326   -1.191904    2.688990
H      -2.188644   -0.820664    0.453635
