20

C      -0.242892    1.505232    0.086543
C      -0.025113    0.007594   -0.010698
N      -0.681868   -0.849781    0.992552
C       0.778009   -0.654127    1.099417
C       1.680669   -1.807051    0.881907
C       1.475849   -2.831068    0.049587
C       0.272757   -2.988898   -0.860561
C       0.153695   -1.791797   -1.783862
C       0.040943   -0.517090   -1.402279
H       0.532994    2.054546   -0.457550
H      -1.211251    1.784747   -0.345515
H      -0.225945    1.843289    1.127613
H      -1.154690   -0.269400    1.680842
H       1.115890    0.034306    1.871437
H       2.609645   -1.773621    1.446198
H       2.246497   -3.594401   -0.021533
H       0.385535   -3.897186   -1.458293
H      -0.639113   -3.102483   -0.267480
H       0.210893   -1.994916   -2.850546
H       0.018364    0.247802   -2.175673
