16

C      -0.104956   -1.178452   -0.080469
C      -0.047970    0.021787   -0.008850
C       0.061938    1.427656    0.093804
C      -0.696065    2.469941    0.847157
C       0.528741    3.374449    1.083370
C       0.430722    4.480860    0.003736
C       0.441327    3.291425   -0.969793
C       1.253532    2.429323    0.040667
N      -0.784471    2.439974   -0.647589
H      -0.164512   -2.236260   -0.149253
H      -1.616347    2.377361    1.409682
H       0.877562    3.543894    2.099420
H      -0.434793    5.148856    0.005630
H       1.357454    5.058595   -0.067616
H       0.628764    3.374618   -2.038442
H       2.319199    2.221464    0.023146
