23

C       0.136704    1.624175   -0.019001
C       0.005769    0.094039   -0.024141
C       0.671239   -0.501223   -1.283610
C       0.247117   -1.927563   -1.635999
O       0.805590   -2.180549   -2.923825
C       0.680981   -3.010942   -0.641589
C       0.033515   -2.908838    0.753405
C       0.559943   -1.776957    1.602617
C       0.552155   -0.488373    1.263573
H       1.190763    1.925236   -0.004241
H      -0.324266    2.065087   -0.908009
H      -0.345469    2.057831    0.863188
H      -1.068001   -0.145707   -0.079652
H       0.414998    0.119629   -2.149895
H       1.762559   -0.464795   -1.181427
H      -0.856761   -1.946827   -1.698582
H       0.597705   -3.089430   -3.163629
H       0.410103   -3.984213   -1.075900
H       1.773340   -2.997172   -0.551816
H      -1.055577   -2.811566    0.629078
H       0.188616   -3.854913    1.281023
H       0.984387   -2.052885    2.565204
H       0.973528    0.229544    1.965382
