12

O       0.078929   -0.082700   -0.002166
C       0.038927    1.123792    0.008360
C       1.207374    2.002285    0.002294
C       1.299926    3.372621    0.012658
C       2.681517    3.682837   -0.000438
C       3.332949    2.474622   -0.018114
O       2.447355    1.448488   -0.016628
C       4.711226    2.161852   -0.036518
N       5.847024    1.937372   -0.051402
H      -0.917510    1.688424    0.024052
H       0.472553    4.065069    0.027908
H       3.147803    4.654758    0.002444
