17

C      -0.060602    1.438804    0.143209
C      -0.050775   -0.044315   -0.018974
C      -0.123638   -0.773387   -1.136470
C      -0.079046   -2.225533   -0.831791
O      -0.122728   -3.151892   -1.599419
N       0.027892   -2.296861    0.581736
C       0.051758   -0.966445    1.169560
C       0.104812   -3.426015    1.383428
N       0.090239   -4.618414    0.950588
H       0.854404    1.787731    0.637458
H      -0.142133    1.943423   -0.821839
H      -0.899518    1.761452    0.771984
H      -0.205244   -0.418201   -2.154383
H       0.978121   -0.789001    1.734757
H      -0.785661   -0.815389    1.866040
H       0.179961   -3.141818    2.442533
H       0.158748   -5.264575    1.735391
