17

C      -0.065882    1.564652   -0.046842
C      -0.045441    0.014316   -0.025018
C       0.699831   -0.503339    1.260200
C       0.102328   -0.056186    2.509491
C      -0.383916    0.318183    3.542717
C      -1.419902   -0.504588   -0.046837
C      -2.547616   -0.917102   -0.053078
C       0.688345   -0.486182   -1.196606
C       1.323079   -0.881787   -2.136555
H       0.958126    1.948247   -0.050012
H      -0.576948    1.921415   -0.942808
H      -0.587331    1.938384    0.836553
H       0.721645   -1.597081    1.223920
H       1.739292   -0.161826    1.195960
H      -0.815884    0.639554    4.457949
H      -3.543257   -1.286484   -0.062315
H       1.867162   -1.236107   -2.977084
