15

C       0.020391    1.443614    0.075070
C       1.505427    1.901637   -0.114846
C       2.184237    0.575738    0.030574
C       1.292080   -0.459490   -0.081177
N      -0.025314    0.001343   -0.306939
C       2.067049   -1.633517   -0.039304
N       3.366543   -1.329436    0.092327
N       3.417268    0.020624    0.109268
H      -0.256969    1.577987    1.130338
H      -0.674827    2.024791   -0.536184
H       1.663615    2.333234   -1.112390
H       1.787162    2.662212    0.619520
H      -0.738768   -0.501858    0.206392
H       1.767719   -2.669627   -0.084489
H       4.311529    0.466702    0.216049
