16

C       0.024490    1.071449    0.394366
O      -0.147574   -0.044813   -0.474799
C      -1.371725   -0.669045   -0.310241
C      -1.528134   -2.033787   -0.886258
C      -1.425124   -1.871139    0.641812
N      -0.216470   -2.194321    1.352629
C      -2.639496   -2.053431    1.399576
N      -3.630345   -2.198866    1.979243
H       1.003793    1.497160    0.168441
H      -0.748614    1.830812    0.215096
H      -0.011335    0.767698    1.447787
H      -2.233666   -0.002873   -0.310692
H      -2.482125   -2.300627   -1.325951
H      -0.653995   -2.469196   -1.357794
H      -0.039387   -3.193576    1.332731
H       0.562451   -1.729120    0.896636
