16

C      -0.112811    1.455802   -0.086464
N      -0.046070    0.066553    0.354038
C      -1.195012   -0.708219    0.192235
C      -1.279327   -2.056872   -0.007819
O      -0.335323   -3.017153   -0.223675
N      -2.656961   -2.352492   -0.007314
C      -3.283585   -1.170009    0.165579
O      -4.628097   -1.113028    0.181415
N      -2.465107   -0.159919    0.301577
H       0.832015    1.948172    0.158842
H      -0.302865    1.572908   -1.165220
H      -0.917381    1.961701    0.450036
H       0.761574   -0.416278   -0.017765
H      -0.034148   -3.370614    0.623155
H      -3.080774   -3.239773   -0.216097
H      -4.852164   -0.182930    0.311552
