18

O       0.105468    1.428240   -0.146330
C       0.020643    0.040198   -0.000867
C       0.292624   -0.595467    1.410684
C      -1.110317   -1.259975    1.383588
C      -2.296122   -0.438562    1.946095
N      -2.019560    1.003837    1.701973
C      -2.578014    0.163068    0.613579
C      -1.397277   -0.635612   -0.013582
O      -1.740924   -1.477242   -1.072576
H      -0.446638    1.784848    0.566556
H       0.647820   -0.406670   -0.778968
H       1.118974   -1.309625    1.420957
H       0.443398    0.141994    2.200553
H      -1.194184   -2.336807    1.520094
H      -2.971977   -0.720351    2.744294
H      -2.787718    1.535800    2.107771
H      -3.515035    0.418310    0.132319
H      -1.792299   -0.940926   -1.872805
