21

C      -0.100654    1.534211    0.086260
C       0.001181    0.011990   -0.026119
C      -1.382480   -0.641085    0.044005
C       0.794749   -0.439640   -1.284498
C       2.177067   -0.853823   -0.725633
C       1.769411   -1.351687    0.676442
O       0.785934   -0.435187    1.105688
C       2.898993   -1.825392   -1.528755
C       3.487107   -2.646038   -2.181696
H       0.886193    1.997379   -0.008095
H      -0.751316    1.941280   -0.694404
H      -0.513288    1.812432    1.060370
H      -1.995414   -0.352265   -0.816604
H      -1.294208   -1.731796    0.047835
H      -1.903493   -0.336485    0.956416
H       0.319867   -1.304423   -1.756151
H       0.868981    0.350694   -2.034349
H       2.795621    0.042781   -0.596387
H       1.378609   -2.379540    0.608731
H       2.591266   -1.340996    1.397168
H       4.011963   -3.365294   -2.760030
