21

C      -0.074156    1.513862   -0.028243
C       0.028175   -0.001943   -0.034498
C      -1.193634   -0.763164    0.533137
O      -0.376451   -1.478756    1.486592
C       0.815906   -0.774395    1.068945
C       1.806757   -1.578372    0.210634
C       0.897856   -2.115933   -0.927948
C       0.744991   -0.604119   -1.267452
C       2.237772   -0.477673   -0.809479
H       0.873805    1.992496   -0.292531
H      -0.825182    1.851612   -0.752731
H      -0.374747    1.888296    0.956031
H      -1.923822   -0.118647    1.039582
H      -1.727350   -1.436444   -0.149061
H       1.277574   -0.225564    1.896719
H       2.528914   -2.212654    0.724886
H       1.470744   -2.645419   -1.692057
H       0.019392   -2.697148   -0.647018
H       0.413158   -0.267995   -2.251195
H       2.586712    0.484487   -0.422628
H       2.942063   -0.854773   -1.553807
