21

C      -0.071517    1.566014   -0.003923
C       0.040007    0.037009   -0.013175
C       0.803796   -0.446657   -1.261829
C       1.288856   -1.896258   -1.136965
N       0.269448   -2.773927   -0.576638
C       0.061741   -2.920824    0.782607
O      -0.445394   -3.927708    1.250405
N       0.463708   -1.877148    1.593530
C       0.690250   -0.462739    1.287474
H       0.912069    2.033171    0.126454
H      -0.486278    1.932267   -0.948524
H      -0.719690    1.916877    0.805575
H      -0.972196   -0.382119   -0.048413
H       0.152487   -0.342201   -2.137094
H       1.675302    0.198238   -1.436516
H       1.565183   -2.285323   -2.120703
H       2.197825   -1.932962   -0.521085
H       0.079247   -3.637054   -1.060251
H       0.245517   -2.089586    2.553866
H       1.767315   -0.234102    1.265354
H       0.275539    0.108540    2.125197
