19

C       0.079278    1.562189   -0.008134
C      -0.080992    0.082807    0.116699
C      -1.367064   -0.754343    0.010082
C      -0.714896   -1.813487    0.994274
C      -1.389435   -1.823431    2.372400
C      -0.543800   -3.159268    0.472136
C      -0.412647   -4.281202    0.059878
C       0.557510   -0.922741    0.983164
O       0.978594   -0.761144   -0.368422
H       1.094032    1.860826    0.267810
H      -0.102250    1.886038   -1.039298
H      -0.631359    2.087485    0.638082
H      -2.248811   -0.281846    0.450097
H      -1.596548   -1.113292   -0.994490
H      -2.393147   -2.252585    2.307073
H      -0.810395   -2.420597    3.083161
H      -1.472942   -0.804831    2.766142
H      -0.286194   -5.266301   -0.315765
H       1.309321   -0.842533    1.762079
