18

C      -0.009141    1.522737    0.010487
O       1.163303    0.693026   -0.006006
C      -0.105465    0.063068    0.003179
C      -0.485198   -0.951770    1.072679
C      -2.004769   -1.048555    1.321084
C      -2.095757   -1.859757    0.012291
C      -2.031011   -1.033760   -1.288787
C      -0.506741   -0.939623   -1.069905
N      -0.570038   -2.050055   -0.004129
H      -0.177303    2.073974    0.935135
H      -0.195799    2.084403   -0.904285
H       0.207189   -1.075701    1.907356
H      -2.223552   -1.674210    2.189929
H      -2.576557   -0.119431    1.401579
H      -2.728958   -2.748714    0.013618
H      -2.267290   -1.649550   -2.160094
H      -2.604197   -0.103849   -1.347233
H       0.168708   -1.054004   -1.919687
