19

C      -0.036798    1.518389    0.052438
C      -0.019794    0.019862   -0.037939
C      -0.928151   -0.856842    0.804928
C      -1.510415   -2.129082    0.215325
O      -0.388272   -2.842144   -0.337119
C       0.756588   -1.985317   -0.248868
C       0.557746   -1.024148    0.933705
C       0.553364   -0.784148   -1.218217
O      -0.213582   -1.019476   -2.369066
H       0.937562    1.940090   -0.219537
H      -0.783641    1.942532   -0.628146
H      -0.278717    1.858254    1.065130
H      -1.472870   -0.354342    1.596617
H      -1.978292   -2.752610    0.987184
H      -2.250395   -1.936539   -0.571345
H       1.652142   -2.597444   -0.339337
H       1.146405   -0.920731    1.834707
H       1.513361   -0.344844   -1.516716
H      -0.616864   -1.888500   -2.235713
