20

C      -0.142057    1.501152    0.032495
C      -0.022652   -0.019591    0.029301
O       0.675737   -0.495698   -1.122509
C       0.782540   -0.546512    1.215735
O       0.155366   -0.106445    2.421267
C       0.308926   -1.084634    3.445677
C       0.540009   -2.397742    2.729424
N      -0.470400   -2.643412    1.679948
C       0.840059   -2.058634    1.321990
H       0.848844    1.962925   -0.033721
H      -0.737513    1.844601   -0.821752
H      -0.629817    1.842492    0.948632
H      -1.021510   -0.474122    0.091363
H       0.210309   -0.175573   -1.900889
H       1.812677   -0.157891    1.144649
H       1.172633   -0.855820    4.090580
H      -0.599969   -1.068540    4.056139
H       1.005084   -3.229260    3.247862
H      -0.464806   -3.631441    1.438073
H       1.538444   -2.615334    0.709812
