18

O      -0.146885    0.117214    0.621548
C       0.016137    1.237058    0.085193
O       1.019927    1.901134   -0.171355
C      -1.363406    1.952457   -0.322152
C      -2.526784    0.993825   -0.166052
C      -2.764302    0.343975    1.246575
C      -4.173572    0.942753    1.258088
N      -3.997576    2.435678    1.112772
H      -4.820440    3.011442    1.243299
H      -3.113007    2.866744    1.384411
C      -3.971949    1.540449   -0.096929
H      -1.459714    2.841501    0.325120
H      -1.291316    2.330823   -1.346345
H      -2.478023    0.209861   -0.922733
H      -2.785764   -0.743170    1.204857
H      -2.085694    0.643354    2.043373
H      -5.079985    0.645067    1.773474
H      -4.681895    1.801467   -0.873033
