14

O      -0.198327    1.281578    0.518350
N      -0.040275   -0.090504    0.351843
C      -1.130174   -0.655352   -0.037001
C      -2.359569    0.057708   -0.441154
N      -3.575037   -0.335361   -0.332201
C      -3.948844   -1.547132    0.203064
C      -3.245750   -2.708321    0.253330
N      -1.977258   -2.976218   -0.209226
C      -1.056141   -2.095687   -0.346724
H       0.681516    1.562151    0.793202
H      -2.188845    1.019927   -0.924067
H      -4.988125   -1.580356    0.520532
H      -3.772127   -3.591012    0.608385
H      -0.101010   -2.431126   -0.753628
