21

C      -0.590136    1.378740    0.051279
C       0.096089    0.011544   -0.020527
C       1.103843   -0.026752   -1.198366
O       2.190401   -0.936329   -1.017929
C       2.558959   -1.129746    0.338663
C       1.405118   -1.801012    1.127542
C       0.839135   -0.359159    1.278714
C       2.304592    0.147604    1.201135
O       2.895587    0.081398    2.484187
H       0.128663    2.170243    0.292738
H      -1.062538    1.638674   -0.902474
H      -1.367484    1.386234    0.821674
H      -0.673359   -0.753811   -0.183940
H       0.608887   -0.318761   -2.129667
H       1.505004    0.986372   -1.352523
H       3.556121   -1.578419    0.337918
H       0.805295   -2.532479    0.580397
H       1.742709   -2.212808    2.078866
H       0.270198   -0.101125    2.175345
H       2.495886    1.119385    0.727288
H       3.848221    0.173172    2.377211
