22

C      -0.139292    1.533466    0.040129
C       0.036508    0.012554    0.046620
C       0.660898   -0.523379   -1.248103
C       0.831137   -2.041308   -1.264619
C       1.584786   -2.550236   -2.496312
C       2.888597   -2.520094   -1.794892
C       2.051683   -2.580516   -0.456760
C       1.981600   -4.090737   -0.728340
N       2.301050   -3.835994   -2.173836
H       0.823660    2.043165   -0.076437
H      -0.783033    1.853779   -0.786769
H      -0.592554    1.887635    0.971212
H       0.657926   -0.279608    0.902797
H      -0.938128   -0.468516    0.202457
H       0.030112   -0.224665   -2.097289
H       1.636578   -0.046088   -1.414230
H      -0.127421   -2.528347   -1.038390
H       1.362492   -2.380453   -3.542493
H       3.882655   -2.193426   -2.069494
H       2.309505   -2.164785    0.515989
H       2.808441   -4.657013   -0.291772
H       1.033910   -4.609707   -0.538874
