19

C      -0.020633    1.537476    0.011030
C       0.029034    0.004834    0.010947
O       0.738107   -0.371228    1.193968
C      -1.351946   -0.528239    0.078560
N      -2.420268   -0.964315    0.147850
C       0.744721   -0.540264   -1.258682
N       2.101965   -0.003921   -1.282542
C       0.693009   -2.073041   -1.357019
O       1.397191   -2.418789   -2.540277
H       0.997615    1.918371   -0.065162
H      -0.598497    1.899773   -0.842306
H      -0.484380    1.890047    0.934132
H       0.595327   -1.309249    1.361007
H       0.209245   -0.147874   -2.132692
H       2.571365   -0.275124   -0.421727
H       2.601522   -0.449452   -2.046343
H       1.174545   -2.521230   -0.470649
H      -0.348150   -2.422927   -1.394779
H       1.376310   -3.374461   -2.641396
