20

C      -0.018867    1.389161   -0.368873
O      -0.038302    0.175700    0.356284
C      -1.240166   -0.521203    0.241010
C      -1.518305   -1.492423   -0.959260
C      -0.411757   -2.421089   -0.408595
C      -1.271727   -1.963578    0.804845
C      -1.250227   -2.475333    2.217631
O      -1.461160   -3.874770    2.246677
N      -2.492356   -2.244268   -0.071434
H       0.942569    1.868273   -0.172139
H      -0.119471    1.222188   -1.450985
H      -0.825917    2.064288   -0.046015
H      -2.099993    0.110110    0.521068
H      -1.761831   -1.261710   -1.996826
H      -0.507979   -3.472999   -0.675912
H       0.610422   -2.049464   -0.444585
H      -0.275816   -2.279922    2.677960
H      -2.009561   -1.937398    2.812006
H      -2.149509   -4.057723    1.594767
H      -3.258693   -1.617451    0.203825
