16

N      -0.107759    1.336633    0.133813
C       0.020603    0.027029   -0.200180
O       1.052626   -0.475666   -0.610163
C      -1.258604   -0.769251   -0.039473
O      -2.406691   -0.021737    0.264910
C      -1.397814   -2.034694   -0.824345
C      -1.203252   -2.121376    0.679645
C       0.047625   -2.697775    1.246674
O       0.064718   -3.307692    2.289252
H       0.723025    1.904639    0.155028
H      -0.947220    1.651994    0.590314
H      -2.794259    0.279672   -0.565065
H      -2.380733   -2.283302   -1.207466
H      -0.551527   -2.300974   -1.447821
H      -2.088571   -2.315718    1.275082
H       0.958716   -2.542812    0.639327
