19

O      -0.087532    1.321779   -0.568783
C      -0.012229   -0.009407   -0.089467
C       0.092023   -0.192877    1.466392
C      -1.095891   -1.195216    1.414382
C      -1.389801   -0.703846   -0.005913
C      -2.653936   -0.052291   -0.482789
C      -2.166628   -1.333807   -1.117555
C       0.987893   -0.774816   -0.828801
C       1.830804   -1.377247   -1.440380
H       0.792216    1.584601   -0.858907
H       1.044979   -0.550098    1.859666
H      -0.180967    0.748734    1.947271
H      -0.766750   -2.238061    1.444140
H      -1.885794   -1.054421    2.155763
H      -3.520170   -0.097549    0.170142
H      -2.553716    0.867995   -1.046462
H      -1.745908   -1.282375   -2.116833
H      -2.702258   -2.253294   -0.903527
H       2.567576   -1.918296   -1.981276
