17

C      -0.330944    1.435538   -0.056840
C       0.181270    0.011667   -0.097912
O       1.445422   -0.105275   -0.792744
C       2.051152   -0.784237    0.320444
C       0.791632   -0.607818    1.186459
C       0.775333    0.034816    2.579466
O       0.134726   -1.164595    3.130656
C       0.130634   -1.780310    1.903393
O      -0.280355   -2.859744    1.623743
H       0.394558    2.106283    0.413264
H      -0.507166    1.787779   -1.077660
H      -1.278032    1.493645    0.490205
H      -0.565669   -0.656446   -0.547424
H       2.294284   -1.828518    0.089954
H       2.949499   -0.270865    0.684000
H       1.750502    0.199943    3.043636
H       0.134193    0.908810    2.709687
