21

C       0.121648    1.648543    0.058937
C       0.002501    0.121777    0.029807
C       0.608953   -0.480585   -1.242342
C       0.685068   -2.026202   -1.251969
O       1.353828   -2.533459   -0.096313
C      -0.714085   -2.687549   -1.210088
O      -1.527088   -2.299772   -2.295655
C       1.365661   -2.467901   -2.481788
C       1.906900   -2.826103   -3.495225
H       1.169855    1.966548    0.024702
H      -0.388738    2.103770   -0.797015
H      -0.322014    2.062660    0.969604
H       0.500337   -0.311008    0.904037
H      -1.055032   -0.156025    0.104286
H       0.034853   -0.168261   -2.120968
H       1.627873   -0.094976   -1.381452
H       2.279375   -2.271997   -0.150676
H      -0.569668   -3.775086   -1.159053
H      -1.226296   -2.372957   -0.298127
H      -1.088708   -2.598750   -3.101184
H       2.399272   -3.144080   -4.381458
