19

C       0.078575    1.531549    0.098637
C      -0.060395    0.041347   -0.040508
C       0.477547   -0.691980   -1.301038
C      -0.651723   -1.746896   -1.141486
O      -1.311974   -2.203043   -2.283215
C      -0.372917   -2.742942    0.018152
C      -0.728722   -1.618458    1.021004
O       0.348084   -0.667498    1.162037
C      -1.377156   -0.793161   -0.122598
H       1.132385    1.801319    0.232591
H      -0.294373    2.042262   -0.794499
H      -0.477621    1.891735    0.969036
H       0.288142   -0.097014   -2.200689
H       1.520415   -1.021279   -1.277141
H      -0.701779   -2.754429   -2.786185
H      -1.151259   -3.513242    0.021967
H       0.616406   -3.201575    0.104712
H      -1.178332   -1.876766    1.980873
H      -2.396132   -0.422963   -0.190724
