15

O      -0.152346   -0.033357   -0.340324
C      -0.034518    1.139800   -0.074536
N      -1.087086    2.025414    0.167482
C      -0.641254    3.319647    0.494470
C       0.674707    3.413567    0.259882
C       1.897792    3.832819    1.046803
C       2.179121    2.290015    1.156910
C       1.206985    2.037349   -0.060008
H      -2.048170    1.727142    0.129251
H      -1.311021    4.002845    0.999642
H       2.661302    4.340557    0.449107
H       1.742716    4.387189    1.974845
H       3.209565    1.960084    1.010625
H       1.785979    1.874414    2.086112
H       1.763066    1.904469   -0.991655
