18

C       0.040253    1.564387   -0.094698
C      -0.006695    0.051455    0.016184
O       0.647738   -0.485840   -1.132730
C       0.735292   -1.826561   -1.263640
C       0.232358   -2.761989   -0.356033
C       0.408276   -4.114807   -0.643211
N       1.023922   -4.590122   -1.725009
C       1.498564   -3.675328   -2.582119
C       1.385508   -2.306264   -2.406566
H       1.074674    1.916485   -0.129717
H      -0.469883    1.900632   -1.001295
H      -0.452490    2.017739    0.770276
H       0.502333   -0.292453    0.926789
H      -1.043806   -0.308520    0.053577
H      -0.281726   -2.468352    0.549198
H       0.022419   -4.856362    0.053546
H       2.001105   -4.063551   -3.465162
H       1.786226   -1.605074   -3.128898
