15

O      -0.342481    1.380108   -0.218985
C      -0.095327    0.006697   -0.046021
C       1.103106   -0.511542   -0.832813
C       2.412315    0.053427   -0.327872
O       3.377928   -0.601886   -0.031738
C      -0.449723   -0.611649    1.282822
C      -1.324241   -0.843637    0.064688
H       0.195221    1.868667    0.412771
H       1.161687   -1.602490   -0.799785
H       0.980436   -0.198643   -1.879314
H       2.432112    1.165434   -0.241790
H       0.155962   -1.432190    1.652196
H      -0.835263    0.050355    2.050429
H      -2.270532   -0.317030    0.027024
H      -1.323775   -1.824805   -0.396723
