19

C       0.509690    0.687097   -1.038763
C       0.224865   -0.580390   -0.388330
C      -0.028299   -1.631634    0.148883
C      -0.339088   -2.878338    0.821645
O      -1.458995   -3.125696    1.218976
C       0.812503   -3.865310    0.971408
C       1.036292   -4.643528   -0.315602
C       1.901491   -4.086456   -1.418304
C       2.380434   -5.263002   -0.605273
H       1.570514    0.948070   -0.964183
H       0.250762    0.639007   -2.102354
H      -0.074616    1.498519   -0.592111
H       1.728264   -3.326038    1.239417
H       0.551718   -4.545970    1.787965
H       0.168734   -5.215838   -0.632037
H       1.597527   -4.256344   -2.445048
H       2.376010   -3.125826   -1.250758
H       3.179365   -5.095081    0.109632
H       2.402828   -6.241255   -1.072488
