22

C      -0.326463    1.451173    0.060860
N       0.093554    0.062792   -0.009975
C       0.629498   -0.497185   -1.242666
C       2.132428   -0.258920   -1.424802
C       2.815946    0.862139   -0.644016
C       2.425042    0.579952    0.835378
C       1.287100   -0.446057    0.736567
C       1.630734   -1.338620   -0.494180
C       1.926775   -2.806168   -0.509265
H       0.436153    2.198793   -0.210307
H      -1.178164    1.589457   -0.614545
H      -0.673886    1.673917    1.075967
H      -0.021998   -0.758700   -2.072366
H       2.535561   -0.563647   -2.386280
H       3.901172    0.817424   -0.783617
H       2.498935    1.856163   -0.973932
H       3.263512    0.136955    1.385208
H       2.128373    1.483156    1.377998
H       1.030924   -0.933240    1.682183
H       1.137245   -3.380843   -0.011736
H       2.010343   -3.177404   -1.536151
H       2.872733   -3.032121   -0.001799
