16

O      -0.153008   -0.028517    0.242716
C      -0.048428    1.078526   -0.209956
C       1.251761    1.871786   -0.198080
C       1.335421    2.955508   -1.276786
C       2.635861    3.790112   -1.149817
C       2.686292    4.920989   -2.074841
N       2.703209    5.812449   -2.809836
C       1.190651    2.364187   -2.673545
O       0.798212    1.243924   -2.875643
H      -0.929232    1.623422   -0.619738
H       1.319361    2.345632    0.791163
H       2.081191    1.162136   -0.271665
H       0.490738    3.653479   -1.165412
H       2.719786    4.176117   -0.128511
H       3.512840    3.154275   -1.318317
H       1.455812    3.043381   -3.510853
