15

O       0.048832   -0.034354    0.064251
C       0.003467    1.171756    0.007816
C      -1.300580    1.963911   -0.009039
C      -1.332985    3.017369   -1.115118
O      -1.029574    4.367174   -0.758768
C      -0.077696    3.653194   -1.544311
C       1.208782    3.257827   -0.860482
O       1.202398    3.277500    0.552928
C       1.259510    1.993220   -0.078391
H      -2.121247    1.251921   -0.112400
H      -1.401952    2.476916    0.953939
H      -2.143115    2.922755   -1.836412
H       0.034021    4.002324   -2.570060
H       2.131325    3.610235   -1.319899
H       2.191951    1.443147    0.022986
