15

O       0.077879    1.368518    0.154883
C       0.021732   -0.038324    0.020944
C      -1.453726   -0.493070   -0.138630
N      -1.413219   -1.437881   -1.270610
C      -0.223671   -1.327132   -1.920416
C       0.672582   -0.559989   -1.249858
C       2.002149   -0.199091   -1.634535
O       2.683593    0.612112   -1.016104
H       1.012466    1.593277    0.034107
H       0.477653   -0.515870    0.902702
H      -1.856605   -0.978040    0.753139
H      -2.065100    0.385356   -0.375793
H      -2.254843   -1.682371   -1.766950
H      -0.078562   -1.843479   -2.862843
H       2.397453   -0.681599   -2.555184
