12

C       0.000631    1.413840   -0.021802
O       0.004682   -0.012388   -0.003821
C       0.597410   -0.616409   -1.043166
C       0.721373   -1.956330   -1.245114
O       1.395548   -2.118819   -2.433238
C       1.631867   -0.871308   -2.865465
N       1.185715    0.068123   -2.090578
H       1.019593    1.813127   -0.025805
H      -0.529246    1.797650   -0.899152
H      -0.516379    1.717191    0.889576
H       0.427019   -2.841872   -0.714343
H       2.160305   -0.765951   -3.799636
