14

C       0.017578   -1.175125   -0.019584
C      -0.000803    0.026630    0.022034
C       0.002714    1.458117    0.058418
C       0.375382    2.248935   -1.191165
C       1.288970    2.343558   -0.011371
N       0.994562    3.412358    0.904907
C      -0.262594    3.155915    1.430196
N      -0.878769    2.117656    0.997314
H       0.022826   -2.236328   -0.049898
H       0.726619    1.660772   -2.030531
H      -0.244389    3.104125   -1.440502
H       2.301006    1.960734   -0.037771
H       1.722213    3.775190    1.502225
H      -0.691027    3.848516    2.147155
