18

C      -0.975059    0.687676    0.415499
C       0.391392    0.309097   -0.109493
O       1.418673    0.667593    0.418859
C       0.436597   -0.537202   -1.395288
C       1.791164   -1.224452   -1.586360
C       1.687318   -2.181519   -2.764256
O       0.580978   -3.090505   -2.607486
C      -0.506771   -2.599556   -1.977805
N      -0.686246   -1.471841   -1.430807
H      -1.593638    1.111099   -0.382547
H      -1.496640   -0.212072    0.754149
H      -0.866813    1.398876    1.235022
H       0.281628    0.196228   -2.205797
H       2.586607   -0.495200   -1.754285
H       2.049544   -1.776748   -0.677185
H       1.546041   -1.636235   -3.706209
H       2.573154   -2.812640   -2.863727
H      -1.301653   -3.343517   -1.981090
