18

C      -0.036348    1.531729   -0.035186
C      -0.011692    0.076483   -0.030028
C       0.015173   -1.127769   -0.018358
C       0.033818   -2.582455   -0.019783
C       0.369314   -3.303771    1.331372
C      -1.056585   -3.890142    1.237281
O      -1.743137   -4.627721    1.894827
N      -1.287287   -3.233624    0.053735
C      -2.452386   -3.130680   -0.783974
H       0.799938    1.942240    0.541143
H       0.034801    1.928751   -1.053621
H      -0.962602    1.913126    0.407961
H       0.631421   -2.952363   -0.862937
H       1.174414   -4.038260    1.279378
H       0.525379   -2.632238    2.175903
H      -3.252614   -3.701495   -0.307030
H      -2.769407   -2.086566   -0.887919
H      -2.271263   -3.543117   -1.784235
