15

O      -0.320638    0.457616    0.970526
C      -0.078440    1.210990    0.057354
C       1.220749    1.941606   -0.074697
C       1.549636    2.519967   -1.444403
C       1.558983    1.505251   -2.494003
C       1.543035    0.651512   -3.339402
C       1.680905    2.628220    1.178750
N       2.339222    1.413667    0.716586
H      -0.820661    1.406459   -0.744063
H       0.820184    3.302214   -1.694572
H       2.527587    3.008956   -1.386106
H       1.541392   -0.098858   -4.090833
H       2.263036    3.541288    1.083377
H       1.026415    2.574489    2.044050
H       1.983961    0.620780    1.252622
