18

C       0.031052    1.526832    0.294819
C       1.316469    0.806425    0.001188
C       2.199508    0.362669    1.168153
C       1.370330   -0.644928    1.994194
C       0.501755   -0.142092    3.165625
O      -0.717087   -0.338288    2.420089
C       0.010518   -0.848548    1.269060
C       0.002132    0.040344    0.037828
H      -0.179955    1.861571    1.304308
H      -0.368771    2.171652   -0.480072
H       1.802016    1.010336   -0.947200
H       3.100495   -0.122283    0.778464
H       2.537585    1.207643    1.780155
H       1.934119   -1.550543    2.222202
H       0.527463   -0.766317    4.067597
H       0.647486    0.906772    3.457707
H      -0.299063   -1.873468    1.039530
H      -0.464439   -0.328106   -0.868339
