11

C      -0.043153    1.540273    0.008647
C      -0.058109    0.782006   -1.327139
C       0.015827    0.035262   -0.020879
N       1.545348    0.025657   -0.032546
C       1.505840    1.532515   -0.032841
C       1.491367    0.798746   -1.325451
H      -0.778201    2.217130    0.419102
H      -0.806475    0.783659   -2.106146
H      -0.604808   -0.733102    0.422235
H       2.268949    2.129959    0.451366
H       2.240388    0.681955   -2.099439
