21

C      -0.034624    1.583986    0.038653
C       0.011526    0.045317    0.051087
C       0.762435   -0.470558    1.291998
C      -1.375444   -0.532976   -0.014911
C      -1.938559   -1.340332   -0.976310
C      -1.424937   -1.920226   -2.251423
N      -3.230162   -1.570746   -0.532727
C      -3.385139   -0.907212    0.647316
N      -2.291780   -0.273262    0.989470
H       0.974672    2.005911    0.094469
H      -0.512521    1.958175   -0.872217
H      -0.610773    1.949546    0.893596
H       0.558710   -0.286337   -0.840822
H       1.769899   -0.043881    1.344884
H       0.220761   -0.193613    2.201081
H       0.852743   -1.561261    1.274778
H      -1.459896   -3.016964   -2.250311
H      -1.995935   -1.575381   -3.122766
H      -0.384543   -1.626714   -2.405549
H      -3.924588   -2.128015   -1.001554
H      -4.311306   -0.926538    1.202914
