19

O       0.379357    1.369743   -0.215262
C       0.172019   -0.006526   -0.086145
C       0.309557   -0.604912    1.404020
C      -1.238786   -0.498056    1.486581
C      -2.640699   -1.256135    1.477689
C      -2.831599   -0.289196    0.200657
C      -2.780761    1.071628    0.899478
C      -1.752220    0.933515    1.741485
C      -1.298917   -0.598872   -0.029409
H      -0.337059    1.816964    0.251459
H       0.817994   -0.482237   -0.829200
H       0.687575   -1.630109    1.388729
H       0.902324   -0.003785    2.100100
H      -2.583787   -2.318202    1.222031
H      -3.321586   -1.087450    2.316870
H      -3.605720   -0.474051   -0.545122
H      -3.473754    1.890122    0.764129
H      -1.362076    1.612120    2.489180
H      -1.200060   -1.644589   -0.342016
