23

C       0.117534    1.615039    0.059624
C      -0.030554    0.092714   -0.017173
C       0.632264   -0.492923   -1.269648
C       0.671614   -2.025821   -1.322342
O       1.426183   -2.485482   -0.204629
C      -0.730362   -2.655541   -1.237089
O      -1.543766   -2.103826   -2.267027
C       1.369555   -2.481032   -2.611722
O       1.608432   -3.884618   -2.479189
H       1.172576    1.909834    0.090999
H      -0.335112    2.102985   -0.811200
H      -0.366575    2.017820    0.955034
H       0.412309   -0.369924    0.871240
H      -1.096231   -0.163869   -0.011856
H       0.116096   -0.125550   -2.163685
H       1.669510   -0.138681   -1.322548
H       1.746608   -3.362924   -0.452406
H      -0.627962   -3.743692   -1.348304
H      -1.142616   -2.451983   -0.240301
H      -2.382071   -2.573742   -2.272818
H       0.728306   -2.268093   -3.476080
H       2.317191   -1.936427   -2.721503
H       2.214230   -4.160690   -3.171589
