17

O      -0.219308    0.376261    0.988493
C      -0.134856    1.318488    0.237566
C      -1.377827    1.910409   -0.433281
O      -1.122928    3.038424   -1.243461
C      -0.329116    4.002617   -0.563878
C       1.107239    3.483002   -0.480706
O       1.814845    3.879415    0.713560
C       2.000912    2.506356    1.126063
C       1.185959    1.992325   -0.083216
H      -1.828089    1.143146   -1.071569
H      -2.102336    2.142503    0.365372
H      -0.402674    4.931108   -1.134851
H      -0.708372    4.189190    0.453208
H       1.670779    3.743836   -1.384103
H       3.058399    2.220013    1.128827
H       1.568554    2.299429    2.110783
H       1.741482    1.351336   -0.772522
