14

O      -0.052134    0.033056   -0.115490
C       0.011468    1.218677   -0.221862
O       1.011912    1.938676    0.342345
C       1.010964    3.333836    0.105172
C       2.194316    4.117910    0.726277
C       2.391110    4.892506   -0.615065
C       1.501000    3.829490   -1.278177
O       1.347291    3.415256   -2.387383
H      -0.718084    1.844612   -0.766897
H       0.040353    3.779973    0.360074
H       1.968511    4.708056    1.613656
H       3.026425    3.443567    0.935401
H       1.920417    5.880590   -0.622318
H       3.403199    4.983844   -1.013561
