12

O       0.035139   -0.022143    0.014974
C      -0.019165    1.179427    0.028292
C      -1.233921    2.046298    0.105788
C      -0.903064    3.335767   -0.025566
C       0.593885    3.490380   -0.131537
O       1.286645    3.019032    1.043420
C       1.174998    2.136762   -0.080336
C       1.182494    4.598686   -0.836401
N       1.617600    5.501036   -1.412138
H      -2.223827    1.639651    0.263871
H      -1.571062    4.187084   -0.020521
H       2.097551    1.840152   -0.568008
