23

C       0.170607    1.537608    0.177978
C      -0.073354    0.038846   -0.034683
C       0.573771   -0.521184   -1.288949
C       0.726102   -2.057189   -1.429445
C       2.107738   -1.664189   -1.987741
C       2.062347   -1.332453   -3.479812
C       0.701324   -0.676309   -3.816930
C       0.124740    0.114685   -2.615506
O       2.038143   -0.406702   -1.258280
H       1.242516    1.755075    0.162582
H      -0.308887    2.144552   -0.595962
H      -0.228086    1.860062    1.144439
H       0.324479   -0.517009    0.822259
H      -1.150413   -0.170918   -0.076322
H       0.801873   -2.540083   -0.453276
H       0.030563   -2.606410   -2.067416
H       2.981809   -2.255953   -1.701254
H       2.893980   -0.650764   -3.689066
H       2.215447   -2.230903   -4.089335
H       0.787845   -0.030288   -4.695568
H      -0.008875   -1.462697   -4.093779
H      -0.969355    0.154685   -2.680684
H       0.488793    1.146815   -2.624826
