20

C       0.203240    1.484494    0.152562
C      -0.151605   -0.001811   -0.007249
C      -1.670196   -0.205319   -0.099581
C       0.555554   -0.572887   -1.227208
C       1.949154   -1.096175   -1.169899
C       0.803725   -2.070014   -1.437931
C       0.462024   -3.064846   -0.399177
O       0.015521   -4.163338   -0.627603
H       1.284201    1.628326    0.245780
H      -0.137192    2.062537   -0.714744
H      -0.274483    1.908053    1.041709
H       0.210982   -0.526840    0.885534
H      -2.078132    0.302947   -0.981280
H      -1.929330   -1.265673   -0.177728
H      -2.175128    0.203204    0.781648
H       0.283804   -0.065962   -2.151608
H       2.636719   -0.903738   -1.985394
H       2.420987   -1.164036   -0.193443
H       0.684687   -2.446241   -2.448239
H       0.662711   -2.739192    0.647737
