15

N       0.157560    1.377548    0.082173
C       0.009055   -0.018586   -0.015445
C      -1.097578   -0.831592   -0.028694
C      -0.598717   -2.178591    0.028724
C       0.777951   -2.097521    0.078059
N       1.259295   -3.377137   -0.039170
C       0.124028   -4.177514   -0.082637
N      -0.998477   -3.497514   -0.065438
N       1.188795   -0.787410   -0.011872
H       0.468485    1.798250   -0.789280
H      -0.716869    1.813300    0.346660
H      -2.121087   -0.497844   -0.099596
H       2.205370   -3.702888    0.055784
H       0.210055   -5.253804   -0.104268
H       2.037045   -0.405229    0.373873
