17

O      -0.037651    1.455390   -0.141430
C       0.008759    0.053674   -0.058140
C       0.335663   -0.505785    1.361471
C      -1.190824   -0.625115    1.581656
C      -1.384755   -0.640829    0.046963
O      -1.780016   -1.606664    2.453680
C      -2.473467   -0.627343    3.258789
C      -1.882344    0.472599    2.373746
O      -1.919332    1.667989    2.299463
H      -0.604074    1.801398    0.564577
H       0.655640   -0.279564   -0.870558
H       0.786635   -1.500960    1.318215
H       0.908006    0.136655    2.034545
H      -2.242675   -0.110595   -0.372739
H      -1.361244   -1.669535   -0.322942
H      -3.564559   -0.730080    3.217205
H      -2.144634   -0.618610    4.304951
