23

C      -0.502670    1.199177   -0.217571
O      -0.302111   -0.199480   -0.295147
C       0.783918   -0.564854   -1.114636
C       0.934389   -2.097248   -1.045821
C       0.782421   -2.557779   -2.506897
C       0.080751   -1.368809   -3.198749
C       0.504140   -1.181196   -4.652230
C      -1.448349   -1.445034   -3.075468
O       0.583339   -0.226937   -2.469526
H       0.384654    1.707714    0.190573
H      -0.728648    1.628249   -1.200699
H      -1.346752    1.366081    0.455402
H       1.676483   -0.008404   -0.790758
H       1.895034   -2.386393   -0.615020
H       0.147590   -2.491451   -0.399481
H       1.763595   -2.717408   -2.964595
H       0.216143   -3.487629   -2.601828
H       0.205481   -2.045356   -5.254102
H       0.035608   -0.289552   -5.079481
H       1.589296   -1.065094   -4.721455
H      -1.754305   -1.565167   -2.033796
H      -1.900093   -0.523811   -3.455446
H      -1.841704   -2.285369   -3.657395
