15

C       0.053008    1.471765    0.072671
C       0.002156   -0.020017    0.067133
N       0.008148   -0.680525   -1.063799
O      -0.056180   -2.039547   -0.720976
C      -0.092059   -2.144276    0.605435
C      -0.052722   -0.914893    1.190801
C      -0.106301   -0.527736    2.617396
N       0.116819   -1.541937    3.518402
O      -0.367695    0.608455    2.969878
H       0.940058    1.824350    0.606766
H       0.074317    1.845949   -0.952323
H      -0.811236    1.877513    0.602963
H      -0.170497   -3.148216    0.995739
H       0.650942   -2.350462    3.245968
H       0.199227   -1.252804    4.481348
