20

C       0.058259    0.850840    0.969091
O      -1.189394    0.536812    0.393993
C      -1.109461   -0.248990   -0.778254
C      -0.830597   -1.727913   -0.497703
C      -1.953181   -2.526872    0.246036
C      -2.061261   -3.513627   -0.960714
C      -1.031478   -2.663708   -1.676322
N      -0.514729   -2.622968   -2.831872
O      -1.013357   -3.660387   -3.643675
H      -0.134392    1.531271    1.802359
H       0.582395   -0.034352    1.359084
H       0.721952    1.352338    0.247419
H      -2.083129   -0.150966   -1.270839
H      -0.346774    0.146971   -1.466976
H       0.155494   -1.844873   -0.035123
H      -1.650443   -2.980381    1.190810
H      -2.852806   -1.932880    0.418857
H      -1.723359   -4.534885   -0.759615
H      -3.033153   -3.575069   -1.458501
H      -0.548347   -3.508797   -4.473381
