20

C       0.305663    1.606638   -0.073664
C       0.122659    0.100670   -0.060010
C       0.834030   -0.757560   -1.145409
O       1.853378   -0.062029   -1.808026
C       1.296597   -1.661025    0.040844
C       2.766796   -1.985040    0.115172
O       3.454168   -2.199718   -0.856523
N       0.874224   -0.625535    0.996717
C       0.168307   -1.027677    2.193603
H       1.361969    1.858046   -0.180398
H      -0.245890    2.055428   -0.906124
H      -0.070905    2.044578    0.856797
H      -0.948905   -0.159233   -0.034241
H       0.158940   -1.252565   -1.853507
H       2.539182   -0.705511   -2.033187
H       0.718054   -2.601247    0.096039
H       3.199013   -1.982512    1.139942
H       0.830049   -1.605806    2.847294
H      -0.152356   -0.141026    2.749684
H      -0.727120   -1.643526    1.982380
