14

N       0.053654    1.237869    0.274928
C      -0.341950    0.061807   -0.263707
O      -0.766439   -0.089370   -1.388584
O      -0.197048   -0.921969    0.673190
C      -0.540444   -2.217393    0.408293
N      -0.393734   -3.154606    1.300820
C      -0.844168   -4.297010    0.666205
C      -1.255882   -4.018145   -0.606800
N      -1.054533   -2.658920   -0.766748
H       0.080605    2.044860   -0.321534
H       0.470699    1.269307    1.188218
H      -0.841561   -5.249383    1.172719
H      -1.660945   -4.626251   -1.397699
H      -1.225482   -2.059073   -1.559099
