19

C      -0.151560    1.556139    0.045684
C      -0.029303    0.047096    0.000330
C      -0.800650   -0.771114    1.028118
C       0.697403   -0.650006    1.112393
O       1.550620   -1.752341    0.871044
C       1.548851   -2.434577   -0.304133
O       2.342912   -3.320834   -0.461865
C       0.503514   -2.044389   -1.335639
C       0.193212   -0.542751   -1.381002
H       0.726824    2.037380   -0.399424
H      -1.034949    1.893105   -0.509146
H      -0.248373    1.919108    1.073459
H      -1.390318   -0.238865    1.766958
H      -1.216912   -1.728862    0.738107
H       1.125160   -0.066166    1.919351
H       0.860095   -2.411260   -2.299543
H      -0.403864   -2.615137   -1.104449
H      -0.677134   -0.363063   -2.023220
H       1.035853   -0.015152   -1.846648
