23

C      -0.180762    1.450245   -0.006333
C       1.229671    0.907444    0.025492
C       0.064443   -0.040043    0.001929
C      -0.329307   -0.865460    1.224339
C      -1.549249   -1.656529    0.723492
C      -1.146243   -2.035041   -0.699409
C      -0.796803   -3.468437   -1.022596
C      -2.047070   -2.838721   -1.593000
C      -0.275451   -0.886612   -1.236618
H      -0.569746    1.914023    0.894979
H      -0.528829    1.907568   -0.927410
H       1.831668    1.001045   -0.873102
H       1.794354    1.004310    0.947735
H       0.478044   -1.560707    1.489945
H      -0.536742   -0.249567    2.104553
H      -1.792981   -2.525547    1.341983
H      -2.431967   -1.003600    0.707865
H       0.032412   -3.654388   -1.698231
H      -0.911465   -4.215620   -0.243281
H      -3.006749   -3.160105   -1.199931
H      -2.060280   -2.602562   -2.652568
H      -0.810921   -0.291217   -1.985104
H       0.628528   -1.271975   -1.722135
