20

C      -0.282850    1.517118   -0.031553
C       0.025547    0.030720    0.063908
N       0.931143   -0.415933   -1.012713
C       1.362388   -1.776802   -0.693244
C       1.308230   -1.805437    0.828635
O       1.540175   -2.736729    1.557576
C       0.784460   -0.448220    1.321227
C       1.976434    0.442731    1.707858
O      -0.085372   -0.630602    2.416519
H       0.633663    2.111405   -0.061446
H      -0.853614    1.732664   -0.941450
H      -0.887103    1.834103    0.823587
H      -0.928977   -0.527127    0.067975
H       0.495921   -0.348340   -1.924444
H       0.694815   -2.577157   -1.056828
H       2.368863   -1.997958   -1.066089
H       2.607413    0.666755    0.843531
H       1.606366    1.379032    2.133325
H       2.581059   -0.062714    2.466988
H       0.232586   -1.416841    2.883152
