14

N       0.087513   -1.191000   -0.041592
C       0.075462   -0.036952    0.018039
C       0.013403    1.423352    0.069867
C      -0.271133    2.151303    1.369721
C       1.025689    2.335733    2.198835
N       2.148528    1.445175    1.969273
C       2.291670    1.429746    0.706008
N       1.342247    2.217336   -0.067766
C       0.784481    3.157960    0.984713
H      -0.645544    1.770640   -0.729062
H      -1.244281    2.292036    1.820896
H       0.892773    2.729055    3.197824
H       3.010142    0.812802    0.178590
H       0.780675    4.230846    0.845196
