22

C      -0.158911    1.435206   -0.041930
N       0.027204   -0.007580    0.047107
C       1.407279   -0.501108   -0.183927
C       0.783805   -0.528409    1.150976
C       1.168380    0.055938    2.523229
C      -0.202795   -0.491996    3.028124
C       0.384311   -1.643565    2.141729
C      -0.240103   -2.972675    1.821705
C       1.755099   -1.353254    2.837934
H       0.691116    2.015324    0.353684
H      -0.306453    1.716684   -1.089532
H      -1.056674    1.722643    0.514917
H       1.488674   -1.394799   -0.798184
H       2.179932    0.245767   -0.367532
H       1.620504    1.021444    2.748428
H      -0.270957   -0.700385    4.100188
H      -1.104383    0.000018    2.655481
H      -1.179185   -2.835382    1.275375
H       0.425373   -3.579568    1.197653
H      -0.455679   -3.540704    2.732937
H       2.657113   -1.647084    2.294491
H       1.816604   -1.616121    3.897627
