23

C      -0.165481    1.570101    0.115249
C      -0.031300    0.047994    0.002362
C       0.726089   -0.473517   -1.253453
C       0.753444   -2.016177   -1.212069
C       0.025840   -0.010029   -2.542601
O      -1.326538   -0.451917   -2.495228
C       2.157605    0.088561   -1.259971
C       3.148479   -0.448169   -0.237984
O       2.500746    0.933771   -2.058577
H       0.805276    2.075421    0.081877
H      -0.779686    1.977616   -0.692662
H      -0.648160    1.837836    1.060190
H       0.464962   -0.343926    0.897849
H      -1.028342   -0.401970   -0.019106
H      -0.263841   -2.395890   -1.332086
H       1.362815   -2.426329   -2.025062
H       1.150912   -2.392106   -0.265216
H       0.090257    1.079666   -2.630822
H       0.552807   -0.434377   -3.409760
H      -1.765682   -0.149433   -3.294641
H       2.711285   -0.534728    0.760319
H       3.473713   -1.452003   -0.533437
H       4.019367    0.207898   -0.211306
