15

O      -0.043735    1.076267    1.322856
C       0.058506    1.384903    0.166621
C       1.396990    1.660200   -0.510141
C       1.278639    2.747635   -1.556402
O       0.370897    2.837898   -2.345607
O       2.311836    3.605752   -1.491499
C       2.272297    4.673293   -2.468566
C       3.458025    5.494316   -2.307795
C       4.427758    6.193539   -2.201122
H      -0.818771    1.479089   -0.505307
H       2.166254    1.872982    0.232049
H       1.675545    0.738367   -1.040476
H       2.217853    4.237377   -3.471417
H       1.357449    5.256685   -2.320922
H       5.286502    6.811347   -2.104682
