20

C      -0.054261    1.477536    0.273017
C       0.081703   -0.036182    0.170606
O      -1.178655   -0.677415    0.206422
C       1.091029   -0.502449   -0.929998
C       2.179128   -0.630902    0.173201
C       1.047214   -0.657049    1.214462
O       1.301983    0.051555    2.412936
C       0.552692   -0.264680    3.489741
N       0.647209    0.419314    4.546202
H       0.920275    1.971672    0.304361
H      -0.595866    1.863491   -0.599625
H      -0.602596    1.754270    1.177385
H      -1.780227   -0.202656   -0.377050
H       0.792643   -1.472369   -1.334012
H       1.288112    0.188984   -1.751939
H       2.846998   -1.492533    0.140668
H       2.776050    0.278219    0.274430
H       0.719220   -1.680201    1.433415
H      -0.092245   -1.139411    3.330669
H       0.036185    0.031854    5.262306
