10

O      -0.095249    0.235461    0.767248
C       0.261579    0.878901   -0.179083
C       1.384296    1.899338   -0.075409
C       1.538553    2.631487    1.212327
O       2.412162    1.579552    0.863593
C       1.809112    2.512892   -1.315905
N       2.097971    2.978947   -2.333080
H      -0.201544    0.790730   -1.181986
H       1.961049    3.633720    1.190177
H       0.820839    2.403249    1.997271
