15

N      -0.305657   -0.896751    0.574999
C      -0.207773    0.193512    0.187659
C      -0.048116    1.500231   -0.326989
C      -1.062911    2.390080   -0.480137
C      -1.825150    2.748810    0.793976
C      -0.707889    3.885394    0.858620
C      -0.475860    3.814970   -0.598120
N       0.681565    3.681649    0.256184
C       1.216139    2.325761   -0.022876
H      -2.788762    3.252902    0.674179
H      -1.881586    1.977578    1.564092
H      -0.787013    4.765667    1.487003
H      -0.576883    4.540013   -1.396037
H       1.720251    1.889027    0.844786
H       1.947974    2.423442   -0.832539
