16

C      -0.032778    1.543276    0.009868
C       0.070682    0.039800    0.023234
C      -0.801361   -0.819231    0.911951
C       0.699903   -0.801270    1.118238
C       1.436545   -1.921413    0.440161
O       2.158330   -2.753074    0.927152
N       1.131309   -1.814276   -0.921219
C       0.442733   -0.651892   -1.268646
O       0.216433   -0.280790   -2.392694
H       0.922510    2.004016   -0.259536
H      -0.776128    1.861813   -0.726202
H      -0.331780    1.922651    0.990832
H      -1.393382   -0.292851    1.653041
H      -1.266396   -1.713549    0.511765
H       1.118928   -0.390805    2.027167
H       1.487208   -2.461389   -1.609674
