14

O      -0.092188    1.471315   -0.035973
C       0.014325    0.082376    0.004361
C       0.109593   -0.646993    1.400844
N      -1.060118   -0.120672    2.122208
C      -2.056059   -0.004224    1.158929
O      -3.154306    0.467473    1.265361
C      -1.366892   -0.658014   -0.074086
C      -0.610298   -1.802092    0.646344
O      -0.547876   -2.986957    0.578293
H       0.790788    1.852392    0.004402
H       0.742295   -0.312257   -0.716333
H       1.014519   -0.754888    1.992753
H      -0.985312    0.537470    2.882836
H      -1.960895   -0.763788   -0.975543
