18

C      -0.096339    1.535966   -0.075367
C       0.063290    0.026673    0.004020
O       0.863349   -0.426034   -1.076423
C       1.188736   -1.773782   -0.786889
C       1.483871   -1.811809    0.729961
C       0.753436   -0.555969    1.283608
C       1.741437    0.414057    1.890695
O       1.625753    0.927939    2.973576
H       0.874041    2.039823   -0.069130
H      -0.613793    1.808483   -0.998760
H      -0.682323    1.902434    0.772334
H      -0.933004   -0.444579   -0.059407
H       0.342330   -2.435583   -1.031006
H       2.039753   -2.059000   -1.409626
H       1.131695   -2.731301    1.201534
H       2.561511   -1.743943    0.912426
H       0.010989   -0.792060    2.048662
H       2.626350    0.626896    1.245823
