20

C      -0.031773    1.499547   -0.051174
C      -0.012563    0.043896   -0.025284
C      -0.010245   -1.160334    0.007599
C       0.012429   -2.614871    0.021952
C       0.938140   -3.169366   -1.069946
C       0.279237   -3.316791    1.423372
C      -1.069532   -4.025102    1.283785
N      -2.088128   -2.947097    1.231067
C      -1.361940   -3.330646    0.003408
H       0.982981    1.913408   -0.059579
H      -0.547556    1.875899   -0.941941
H      -0.548079    1.906493    0.825473
H       1.967770   -2.839147   -0.904725
H       0.920161   -4.264494   -1.070227
H       0.624337   -2.819411   -2.058330
H       1.144055   -3.982400    1.381050
H       0.360133   -2.647214    2.281048
H      -1.334126   -5.022993    1.610443
H      -3.002495   -3.396936    1.185222
H      -1.890939   -3.664324   -0.882093
