21

C       0.018478    1.582374   -0.075952
C       0.040933    0.052070   -0.025956
C      -1.363051   -0.544081    0.148734
C      -1.425965   -2.079002    0.076615
C      -0.607172   -2.781024    1.161017
C      -2.843850   -2.656414   -0.158915
O      -2.452179   -3.119914   -1.491607
C      -1.178958   -2.634049   -1.337335
O      -0.282089   -2.687021   -2.118192
H       1.027361    1.988793   -0.194025
H      -0.585679    1.942262   -0.916051
H      -0.405899    2.005366    0.841712
H       0.486804   -0.346082   -0.944185
H       0.687044   -0.272702    0.797852
H      -1.785051   -0.225919    1.112354
H      -2.022474   -0.129446   -0.625455
H      -0.913729   -2.438676    2.155443
H      -0.739186   -3.866505    1.118198
H       0.458666   -2.572173    1.042155
H      -3.133015   -3.499901    0.471996
H      -3.656660   -1.930018   -0.228545
