19

C       0.018663    1.482801   -0.009968
C      -0.116824   -0.034080    0.068144
O       0.756290   -0.594921    1.054754
C      -1.559520   -0.479634    0.328312
N      -1.629352   -1.920045    0.450476
C      -2.576213   -2.672879   -0.180169
C      -2.436530   -4.176089    0.009571
O      -3.475885   -2.185443   -0.842664
H       1.062300    1.762520   -0.175294
H      -0.585068    1.890486   -0.826741
H      -0.320402    1.954294    0.921236
H       0.218289   -0.484715   -0.873211
H       0.606851   -0.118265    1.879712
H      -1.928479    0.009896    1.244220
H      -2.224510   -0.186699   -0.487894
H      -0.865181   -2.359633    0.938262
H      -2.371783   -4.648827   -0.973879
H      -1.566679   -4.466279    0.604438
H      -3.340780   -4.555075    0.493522
