20

C       0.481320    1.477734    0.229373
C       0.063451    0.044783   -0.025867
C       0.561073   -0.665699   -1.304557
C       1.110511   -1.729506   -0.331873
C       2.585092   -2.079532   -0.389502
C       3.034062   -2.908745    0.807360
O       4.419157   -3.183535    0.651145
O       0.774427   -0.901674    0.811094
H       1.556774    1.602817    0.070124
H      -0.054310    2.157369   -0.442803
H       0.251185    1.765903    1.260122
H      -1.021427   -0.062684    0.121296
H      -0.198276   -0.991842   -2.016608
H       1.342871   -0.114428   -1.833997
H       0.504742   -2.649004   -0.320818
H       2.786757   -2.638920   -1.312069
H       3.180798   -1.160374   -0.427359
H       2.834307   -2.345944    1.730538
H       2.446455   -3.840978    0.855360
H       4.723440   -3.639765    1.440851
