15

C       0.164263    1.356087   -0.234573
O      -0.183759    0.003914    0.072615
C       0.531411   -0.521311    1.104184
C       1.994530   -1.042672    0.971012
O       3.066358   -0.685560    1.764242
C       0.918605   -1.963477    1.411415
O       0.713132   -1.731598    2.835544
C       0.199234   -0.448172    2.574942
O      -0.310715    0.290203    3.347640
H       1.224684    1.438450   -0.504032
H      -0.453373    1.647326   -1.085416
H      -0.045038    2.017761    0.613442
H       2.271135   -1.114434   -0.078367
H       2.873679   -0.980455    2.664219
H       0.577061   -2.907449    1.009263
