20

C       0.294499    1.405872   -0.186004
O       0.602524    0.033913   -0.261318
C      -0.223471   -0.658804   -1.176631
C       0.197002   -2.104966   -1.168551
N      -0.032438   -2.855835   -2.394786
C       1.359514   -2.598918   -1.987602
C       2.180994   -1.654766   -2.822596
C       3.677284   -1.723399   -2.578501
O       1.687242   -0.876302   -3.605937
H       0.414712    1.904397   -1.160075
H      -0.737829    1.574828    0.160367
H       0.984339    1.857579    0.531264
H      -1.283173   -0.583776   -0.876606
H      -0.127871   -0.253573   -2.191484
H       0.062492   -2.610669   -0.213422
H      -0.275864   -3.820993   -2.189457
H       1.920018   -3.418889   -1.543221
H       3.892881   -1.546815   -1.518376
H       4.059530   -2.721846   -2.821360
H       4.186344   -0.976685   -3.188320
