20

C      -0.044241    1.460126   -0.024959
C      -0.006392   -0.059712   -0.033198
C      -1.307689   -0.725990   -0.501999
O      -1.427040   -1.950886    0.222370
C      -0.814918   -1.779759    1.503393
C       0.319672   -0.780752    1.306124
N       1.663953   -1.265694    0.799953
C       1.437502   -2.109798   -0.395121
C       1.324317   -0.646490   -0.546416
H       0.886564    1.874876    0.374543
H      -0.174970    1.857048   -1.038704
H      -0.872459    1.831775    0.587750
H      -2.167689   -0.069777   -0.288991
H      -1.317725   -0.974172   -1.567794
H      -1.542794   -1.382156    2.228819
H      -0.482960   -2.763351    1.849128
H       0.483192   -0.139930    2.174066
H       2.363431   -2.560115   -0.741377
H       0.563850   -2.747236   -0.462060
H       2.060080   -0.061380   -1.091782
