19

C       0.094701    1.479108    0.185762
C      -0.003906   -0.039715   -0.052241
C      -1.406949   -0.473732   -0.043310
N      -2.511755   -0.813527   -0.075808
C       0.663274   -0.505550   -1.371330
N       0.071890    0.180909   -2.496840
C       2.208478   -0.460603   -1.292452
O       2.276375   -1.873930   -1.032323
C       0.891843   -2.049411   -1.393008
H       1.144383    1.779892    0.235790
H      -0.379625    2.026084   -0.629900
H      -0.385481    1.752379    1.128196
H       0.501007   -0.567756    0.765731
H       0.479519   -0.143237   -3.367904
H      -0.926990   -0.002898   -2.547480
H       2.675051   -0.188527   -2.250009
H       2.667112    0.131615   -0.493260
H       0.345943   -2.664030   -0.668451
H       0.777994   -2.484787   -2.395945
