14

O       0.011475   -0.249317    0.176854
C       0.001516    0.958127    0.248857
C       1.168198    1.791915    0.118651
C       2.124955    2.523131    0.013994
C       3.289923    3.376819   -0.119524
C       3.987027    3.420727   -1.510027
C       3.681410    4.929718   -1.451381
O       2.979334    4.787890   -0.194619
H      -0.936647    1.522430    0.424878
H       3.979080    3.171653    0.711421
H       5.038815    3.135396   -1.505268
H       3.460240    2.870719   -2.289093
H       4.556425    5.582737   -1.353896
H       3.028278    5.320263   -2.239105
