18

C      -0.301661    1.559051   -0.015860
C       0.064938    0.066147    0.046271
C       0.743515   -0.439151   -1.191092
C       2.077463   -0.663349   -1.398491
O       3.095205   -0.506438   -0.557501
C       4.398968   -0.861713   -1.032539
O       2.322052   -1.102662   -2.637951
N       1.091784   -1.188630   -3.330754
C       0.199851   -0.792146   -2.454356
H       0.592392    2.174736   -0.153865
H      -0.978361    1.765063   -0.851441
H      -0.797236    1.878028    0.906630
H       0.722894   -0.110624    0.903918
H      -0.842734   -0.521186    0.230846
H       4.438113   -1.918963   -1.310395
H       4.678502   -0.251948   -1.896415
H       5.075496   -0.666812   -0.200747
H      -0.839624   -0.774454   -2.756251
