17

N       0.025550    1.338331    0.380152
C      -0.050623    0.101936    0.052509
N      -1.238664   -0.555780   -0.054561
C      -2.506957    0.137933    0.118828
C      -3.633478   -0.858027    0.206646
C      -4.979104   -0.513076   -0.305334
N      -4.150911   -1.502177   -1.018123
C       1.113426   -0.730386   -0.218695
N       2.061898   -1.355325   -0.435097
H       0.993459    1.640366    0.451927
H      -1.247611   -1.469571   -0.477228
H      -2.440288    0.741028    1.030437
H      -2.682143    0.842947   -0.708078
H      -3.564826   -1.542903    1.049597
H      -5.861393   -0.917962    0.180785
H      -5.118539    0.467834   -0.752475
H      -3.738963   -1.061992   -1.839111
