17

C      -0.008713    1.449749    0.013979
N      -0.022668   -0.009584   -0.018807
C      -0.121197   -0.695878   -1.187316
N      -0.140476   -1.986699   -1.293861
C      -0.052426   -2.684245   -0.117065
C       0.050445   -2.122129    1.119619
C       0.144959   -2.906943    2.393361
C       0.070637   -0.674216    1.229177
O       0.157200   -0.025240    2.259679
H       0.915797    1.802679    0.475924
H      -0.087052    1.830262   -1.005216
H      -0.842908    1.816219    0.616069
H      -0.187424   -0.084156   -2.084032
H      -0.070132   -3.766618   -0.222083
H       0.120371   -3.981773    2.197398
H       1.068309   -2.666105    2.930998
H      -0.677681   -2.651290    3.069751
