23

C       0.187516    1.191117    0.349295
O      -0.236188   -0.075540   -0.098656
C       0.453176   -0.522901   -1.236848
C       1.923921   -1.025425   -1.081823
C       1.543383   -2.333809   -1.848125
C       2.267604   -2.598287   -3.149518
C       1.261861   -3.522631   -0.894899
C      -0.173671   -2.976367   -0.637138
C       0.022950   -1.905265   -1.747281
H       1.247609    1.192110    0.644957
H       0.047164    1.963046   -0.424323
H      -0.419654    1.450495    1.220108
H       0.384894    0.232762   -2.036005
H       2.686629   -0.406617   -1.561559
H       2.213621   -1.196728   -0.040719
H       3.316276   -2.865491   -2.966993
H       1.806846   -3.425471   -3.701349
H       2.262163   -1.717260   -3.801865
H       1.251274   -4.480239   -1.425357
H       1.925217   -3.619585   -0.029339
H      -0.974491   -3.690897   -0.836962
H      -0.338029   -2.545398    0.352046
H      -0.672623   -1.938482   -2.587613
