14

O      -0.102810   -0.043260    0.139859
C      -0.024239    1.172908    0.113377
C       1.202414    1.916472    0.016290
C       1.311580    3.266205   -0.040815
N       2.601042    3.692927   -0.200420
C       3.512535    2.557282    0.047788
C       2.592042    1.317669   -0.114456
H      -0.941191    1.805386    0.174556
H       0.506554    3.991234   -0.011435
H       2.866558    4.617402    0.101186
H       4.348208    2.570719   -0.656207
H       3.922774    2.616113    1.065109
H       2.794189    0.545692    0.631441
H       2.721722    0.850617   -1.098048
