17

C      -0.096631    1.561695   -0.022241
C       0.048147    0.034489   -0.039566
C       0.870589   -0.546554   -1.218442
C       1.518912   -1.817756   -0.635807
N       1.658886   -1.472569    0.769658
C       0.855481   -0.463986    1.206214
O       0.772010   -0.018728    2.325111
C      -1.271849   -0.606631    0.009278
N      -2.306230   -1.123196    0.025075
H       0.890547    2.026412   -0.095410
H      -0.712697    1.907058   -0.855991
H      -0.554767    1.876629    0.917403
H       0.268488   -0.748396   -2.104957
H       1.647452    0.176536   -1.483272
H       0.877021   -2.697604   -0.774548
H       2.490466   -2.029556   -1.090755
H       2.188545   -2.019416    1.430041
