14

C      -0.142854   -3.822984   -0.021923
C      -0.091784   -2.616481   -0.003336
C      -0.037137   -1.258326    0.015828
C       0.016271   -0.049317    0.038712
C       0.048958    1.380682    0.019389
N       0.526961    2.079222    1.229237
C       1.345718    2.162526    0.007515
C       2.628273    1.520404    0.010481
C       3.709699    0.998184   -0.023468
H      -0.185579   -4.883705   -0.035547
H      -0.763318    1.844169   -0.538194
H       0.003730    2.943365    1.350657
H       1.304139    3.090720   -0.559590
H       4.661326    0.527127   -0.041178
