15

C      -0.100888    1.544346   -0.100424
C      -0.022156    0.043404    0.149534
N      -1.348916   -0.562278    0.038279
C      -1.482651   -1.903282    0.015913
N      -0.538633   -2.781441   -0.096970
O      -1.261022   -4.023940   -0.148437
C      -2.579111   -3.789201   -0.030494
O      -3.465613   -4.576217   -0.016113
O      -2.737097   -2.408401    0.076094
H       0.893703    1.989813   -0.018941
H      -0.495531    1.756785   -1.097886
H      -0.745191    2.036388    0.637032
H       0.618282   -0.442109   -0.592414
H       0.418086   -0.164763    1.134431
H      -2.128333   -0.060390    0.437250
