19

O      -0.979874    1.367161    0.697371
C      -0.153805    1.230018   -0.169495
C       1.270546    1.738145   -0.098081
C       1.588809    2.610035   -1.336417
O       2.977526    2.730746   -1.542544
C       3.662939    3.745980   -0.826762
C       3.125910    4.064416    0.573483
O       2.876990    2.918255    1.359580
C       1.555744    2.421470    1.243539
H      -0.404446    0.697253   -1.116699
H       1.919122    0.854931   -0.203521
H       1.195828    2.118103   -2.233832
H       1.091520    3.588629   -1.260937
H       4.695399    3.389805   -0.751983
H       3.674089    4.686553   -1.403420
H       3.886609    4.662586    1.089961
H       2.218537    4.684173    0.512587
H       0.827506    3.231227    1.403577
H       1.425106    1.705096    2.058198
