16

C       0.060392    1.548776    0.220894
C       1.455516    1.994215   -0.165640
O       2.487379    1.335691    0.575354
C       2.216812    0.877910   -0.751515
C       1.353743   -0.368365   -0.755143
O       1.940303   -1.421873    0.044527
C       1.181386   -1.477817    1.167497
N       0.139906   -0.764806    1.272014
C       0.049467    0.009138    0.023513
H      -0.182983    1.808809    1.254029
H      -0.675453    2.032969   -0.430301
H       1.658043    3.030557   -0.425512
H       3.021700    1.005625   -1.470649
H       1.197831   -0.758814   -1.763418
H       1.544704   -2.175390    1.913681
H      -0.859114   -0.295716   -0.504015
