16

C      -0.029133    1.513070    0.009137
C      -0.022917    0.013353    0.002004
C      -0.916974   -0.858339    0.843493
C       0.580174   -0.992180    0.956045
N       1.318403   -1.730477   -0.146108
C       0.365802   -2.250092   -1.146967
C       0.654745   -0.800961   -1.126919
H       0.953404    1.916146   -0.262773
H      -0.760880    1.913671   -0.703468
H      -0.286835    1.900367    0.999902
H      -1.347633   -0.337718    1.694666
H      -1.573102   -1.621323    0.439248
H       1.112710   -0.858744    1.889713
H       0.870294   -2.833838   -1.912389
H      -0.593808   -2.656946   -0.850387
H       1.241897   -0.314083   -1.900742
