12

O       0.139941    1.348337    0.006481
C      -0.010495    0.026821    0.000935
C      -1.128083   -0.732852    0.003229
N      -0.635640   -2.069817   -0.006224
C       0.722988   -2.100552   -0.013633
O       1.506863   -3.004390   -0.022257
O       1.111473   -0.738659   -0.008997
C      -2.485716   -0.394640    0.012331
C      -3.663761   -0.139119    0.020076
H       1.084475    1.548099    0.003970
H      -1.200952   -2.900319   -0.006992
H      -4.697437    0.103303    0.026943
