19

C      -0.084749    1.574636    0.006569
C      -0.040922    0.057361    0.014734
O      -1.309337   -0.501107   -0.227109
C       1.193847   -0.659394   -0.652498
N       2.010826   -0.110556    0.514834
C       0.740238   -0.673042    1.146207
C       0.855191   -1.888939    0.205870
C       0.201146   -3.181553    0.016852
N       1.631755   -3.091609    0.448251
H       0.895435    1.995545    0.225768
H      -0.407233    1.938639   -0.977977
H      -0.807608    1.930429    0.747925
H      -1.755398    0.048149   -0.878896
H       1.548982   -0.605497   -1.684367
H       2.767629   -0.770434    0.711575
H       0.563962   -0.643630    2.221995
H      -0.475893   -3.572784    0.770549
H      -0.012432   -3.509481   -0.997320
H       2.238926   -3.294550   -0.343322
