18

C      -1.181071   -0.074579    0.831053
N       0.058701   -0.072872    0.066733
C       1.121586    0.682402    0.476471
O       1.158247    1.367643    1.476370
C       0.091502   -0.761150   -1.184624
C       1.176854   -1.756731   -1.550391
C       1.518993   -2.609946   -0.331745
O       0.116854   -2.925635   -0.105813
C      -0.242535   -2.221228   -1.288248
H      -1.997048    0.382461    0.258297
H      -1.455562   -1.100462    1.090828
H      -1.011378    0.507471    1.736821
H       1.973938    0.590888   -0.224268
H      -0.259373   -0.194711   -2.049434
H       1.753498   -1.686292   -2.462122
H       2.072746   -3.517966   -0.590931
H       1.979909   -2.118804    0.530731
H      -1.021028   -2.637490   -1.917106
