26

C       2.654951    0.359921    0.665318
C       1.433162   -0.524694    0.423146
N       1.430325   -0.999765   -0.956096
C       2.126853   -2.253587   -1.223055
C       0.644198   -2.174776   -1.355313
C      -0.283076   -2.967099   -0.449155
C      -1.774786   -2.617166   -0.620345
C      -2.652062   -3.583771    0.185631
C      -2.086726   -1.160075   -0.254845
H       3.581319   -0.207825    0.529041
H       2.667040    1.197244   -0.037914
H       2.648648    0.757779    1.684924
H       1.427832   -1.344412    1.161888
H       0.517407    0.055389    0.583465
H       2.770534   -2.279349   -2.099105
H       2.511206   -2.806753   -0.364748
H       0.251917   -2.068798   -2.368006
H      -0.151706   -4.032380   -0.682376
H       0.006153   -2.853193    0.602258
H      -2.016853   -2.753337   -1.684817
H      -2.451117   -3.492708    1.260073
H      -3.716002   -3.376566    0.030648
H      -2.467654   -4.625137   -0.099126
H      -1.875825   -0.968472    0.804219
H      -1.492899   -0.458000   -0.847472
H      -3.144101   -0.932262   -0.426149
