18

O       0.068202    0.317005    1.183745
C      -0.071154    0.196076   -0.238776
C      -1.377605   -0.540421   -0.535784
C      -1.373763   -2.005666   -0.203434
C      -1.563973   -3.042456   -1.095783
N      -1.546386   -4.219369   -0.404923
C      -1.332363   -3.973609    0.936599
C      -1.224844   -2.609937    1.088310
O      -1.039693   -1.977014    2.276496
H       0.981282    0.534433    1.392196
H      -0.092870    1.199156   -0.688820
H       0.776577   -0.357291   -0.663625
H      -2.175853   -0.014920    0.007080
H      -1.595741   -0.414460   -1.602369
H      -1.725961   -3.019926   -2.162266
H      -1.657353   -5.130357   -0.810434
H      -1.277484   -4.766883    1.662382
H      -0.674990   -1.096938    2.080109
