19

C       0.039885    1.436824   -0.057260
C       1.385307    0.726373    0.006688
C       1.998508    0.487417    1.373024
C       0.816479   -0.120501    2.181634
O      -0.078544   -0.719494    1.234627
C       0.105468   -0.064698    0.016739
C       0.070548   -0.850478   -1.273053
O       0.994343   -0.169296   -2.126432
C       2.036033    0.400319   -1.320633
H      -0.293225    1.981276    0.819080
H      -0.242522    1.880684   -1.006331
H       2.818201   -0.233604    1.279862
H       2.394811    1.380913    1.864579
H       1.124114   -0.894489    2.890059
H       0.291929    0.662561    2.745597
H       0.379722   -1.886794   -1.064734
H      -0.890982   -0.864881   -1.794336
H       2.426683    1.256625   -1.879523
H       2.858122   -0.317872   -1.165408
