16

C      -0.053211    1.479632    0.002306
C       1.385239    1.967201    0.023292
C       2.263562    0.961891    0.016859
C       1.570553   -0.346964    0.057111
N       2.073350   -1.593506   -0.448908
C       1.475930   -2.494903    0.222668
O       0.623015   -2.120917    1.218260
C       0.639405   -0.700437    1.219992
C       0.063063   -0.046092    0.002957
H      -0.620250    1.856814    0.863966
H      -0.584162    1.830858   -0.891146
H       1.637644    3.019801    0.071291
H       3.342831    1.047660    0.027714
H       1.573955   -3.564758    0.089828
H       0.633326   -0.265203    2.213442
H      -0.587845   -0.640390   -0.628941
