19

C       0.030347    1.537473   -0.061442
C       1.315706    0.756135   -0.005603
O       1.965504    0.615671    1.251411
C       1.227731   -0.271298    2.040806
C      -0.076046    0.135661    2.660747
C      -0.076294   -0.649024    1.363339
C       0.226643   -2.141778    1.625169
C       1.596850   -1.741428    2.280641
C      -0.021847    0.022443    0.016674
H      -0.259509    2.134452    0.795074
H      -0.231382    1.983373   -1.016233
H       2.009929    0.764985   -0.839196
H      -0.417311   -0.351710    3.571267
H      -0.321780    1.187773    2.606138
H      -0.491859   -2.660851    2.266788
H       0.353051   -2.719381    0.706968
H       2.449428   -2.047011    1.671560
H       1.774485   -2.043122    3.317517
H      -0.378179   -0.527983   -0.846215
