16

O      -0.098863    1.435728    0.235704
C      -0.004306    0.066638    0.109835
C      -0.835922   -0.857628    0.926741
C       0.680521   -0.987686    0.976897
C       1.244709   -1.648323   -0.303832
N       0.175592   -2.056107   -1.194404
C       0.555360   -0.617027   -1.177238
C       1.164509   -0.012175   -2.356790
O       1.601347   -0.660189   -3.288258
H       0.787364    1.815595    0.216323
H      -1.242568   -0.381438    1.813324
H      -1.450071   -1.626656    0.476018
H       1.245604   -0.876324    1.892223
H       2.260094   -2.004345   -0.428549
H       0.597886   -2.426116   -2.050237
H       1.217920    1.096326   -2.349681
