15

N      -0.234164    1.422516    0.016426
C       0.023918    0.025573   -0.012600
C      -0.964435   -0.930050   -0.001943
N      -2.314604   -0.699411    0.036871
C      -3.372216   -1.589366    0.051968
N      -3.233388   -2.850455    0.029711
O      -0.450117   -2.154278   -0.035053
N       0.963195   -2.045741   -0.070084
C       1.205744   -0.758285   -0.056167
H       0.175661    1.869412    0.830531
H       0.133941    1.895625   -0.802781
H      -2.523799    0.288934    0.057718
H      -4.323907   -1.045488    0.085187
H      -4.144810   -3.302572    0.047215
H       2.234951   -0.424610   -0.077805
