17

C      -0.159643    1.483787   -0.210081
C       0.018407   -0.016520   -0.171526
C       1.391788   -0.650097   -0.189478
O       2.526879    0.145464   -0.116287
C       0.549989   -0.684054    1.073731
O       1.047582    0.055888    2.202231
C       0.711738   -1.019144    3.123268
C       0.119203   -1.816451    1.944030
O      -0.435572   -2.864009    1.796848
H       0.687870    1.990352    0.254240
H      -0.230091    1.826971   -1.246779
H      -1.071041    1.786535    0.313638
H      -0.752216   -0.603818   -0.666853
H       1.534821   -1.575066   -0.742687
H       2.664948    0.354537    0.819463
H       1.596990   -1.460621    3.592904
H      -0.003755   -0.698654    3.887197
