23

C       0.082473    1.546703    0.046531
C      -0.001766    0.019197   -0.013474
C      -1.448594   -0.534805   -0.036918
C      -2.231629   -0.113737   -1.297513
C      -1.439960   -1.991926    0.101989
C      -1.408521   -3.192390    0.211581
C      -1.394470   -4.656549    0.299076
C      -2.816267   -5.234535    0.351191
O      -0.633096   -5.242934   -0.757014
H       1.123636    1.871052    0.137116
H      -0.329715    2.019256   -0.850008
H      -0.462999    1.940302    0.911977
H       0.529474   -0.354306   -0.897409
H       0.511079   -0.408583    0.854561
H      -1.973009   -0.120324    0.837018
H      -1.727681   -0.472743   -2.200701
H      -3.240343   -0.534650   -1.283921
H      -2.318207    0.974216   -1.361184
H      -0.863108   -4.954169    1.211574
H      -3.375533   -4.954257   -0.547362
H      -2.764774   -6.325080    0.408137
H      -3.359578   -4.854869    1.221520
H      -0.954555   -4.864315   -1.582749
