19

C       0.599990    1.567584   -0.056233
C      -0.125251    0.219534   -0.129699
O       0.380948   -0.441055   -1.266712
C      -0.156079   -1.726076   -1.527227
C       0.714880   -2.818060   -0.917948
C       0.732396   -2.915847    0.602456
O       1.052172   -3.964734    1.130698
C       0.353450   -1.773740    1.471405
C      -0.013755   -0.519520    1.176909
H       1.668495    1.412224    0.115545
H       0.472470    2.099762   -1.001687
H       0.198616    2.183621    0.752699
H      -1.205425    0.422142   -0.275500
H      -1.195585   -1.795487   -1.174399
H      -0.171175   -1.841442   -2.616357
H       0.428411   -3.805520   -1.294489
H       1.748860   -2.646958   -1.244021
H       0.365071   -2.067540    2.518101
H      -0.301378    0.108910    2.020190
