18

C      -0.216430    1.531712   -0.064314
C       0.037334    0.040363    0.039207
O       0.808380   -0.411972   -1.115304
C       1.826872   -1.253920   -0.672448
C       1.345651   -1.812461    0.663732
C       0.866723   -0.468507    1.234685
N       2.029621    0.395730    1.493288
C       2.983486    0.286325    0.664229
O       3.044914   -0.494615   -0.441648
H       0.717172    2.094735   -0.015513
H      -0.718684    1.758456   -1.008737
H      -0.862829    1.859613    0.755997
H      -0.922974   -0.496370    0.026011
H       2.087213   -1.961431   -1.458859
H       0.523424   -2.516966    0.512011
H       2.135564   -2.285447    1.248842
H       0.270141   -0.547919    2.145034
H       3.904191    0.853002    0.787594
