18

C       0.004510    1.453015    0.013150
N      -0.005932    0.003039   -0.005835
C       0.074652   -0.775890   -1.143325
C       0.096710   -2.092265   -0.762262
C       0.028306   -2.123822    0.666318
C      -0.030989   -0.804015    1.087428
C       0.011500   -3.273859    1.581180
C       0.081845   -4.660275    0.958957
O      -0.055035   -3.128999    2.789411
H       1.008459    1.846997   -0.177907
H      -0.677161    1.844166   -0.746800
H      -0.328943    1.801901    0.991788
H       0.107167   -0.316001   -2.118425
H       0.145366   -2.939900   -1.428148
H      -0.089281   -0.406410    2.087499
H      -0.763721   -4.822229    0.281289
H       0.996142   -4.771403    0.365601
H       0.065355   -5.410854    1.749756
