19

C      -0.597957    0.922054    0.031943
O       0.662630    0.262237   -0.091231
C       1.002012   -0.514384    0.971174
C       0.793093   -1.857162    1.193005
C       0.055874   -2.810664    0.306602
C       1.419721   -2.152983    2.448616
N       1.357933   -3.411239    3.083416
C       1.980506   -0.994017    2.933098
N       1.692987    0.017047    2.027560
H      -0.608639    1.603459    0.892100
H      -0.742678    1.495724   -0.886257
H      -1.413404    0.197900    0.145075
H       0.683273   -3.659205    0.001503
H      -0.830601   -3.231896    0.796963
H      -0.269030   -2.308083   -0.608672
H       1.472607   -4.172310    2.424065
H       2.060525   -3.508546    3.806256
H       2.529599   -0.796557    3.838894
H       2.089934    0.939621    2.031178
