23

C      -0.024590    1.546287    0.008178
C      -0.024804    0.035662   -0.014313
C       0.362410   -0.798710   -1.273364
C      -0.414868   -1.944744   -0.556591
C      -0.951222   -3.157891   -1.279845
C       0.482562   -2.181226    0.679451
C       0.774037   -0.701331    1.084682
C      -1.345183   -0.798278   -0.046675
O      -2.155074   -0.950111    1.090259
H       0.993695    1.948127   -0.050481
H      -0.595271    1.958733   -0.830658
H      -0.475939    1.921656    0.933899
H      -0.137554   -0.451455   -2.181945
H       1.427409   -0.955143   -1.468068
H      -0.140427   -3.809558   -1.625906
H      -1.594384   -3.751452   -0.619839
H      -1.545964   -2.871820   -2.153847
H      -0.031544   -2.751847    1.461920
H       1.389182   -2.737384    0.423193
H       1.839024   -0.453454    1.048621
H       0.421741   -0.450196    2.092147
H      -2.012815   -0.449582   -0.839842
H      -1.610599   -1.257775    1.821693
