20

N       0.542011   -0.001442   -0.851968
C      -0.101264    0.260647    0.321657
O       0.154551    1.229667    1.008545
C      -1.198863   -0.740609    0.708327
C      -1.044190   -2.142571    0.187161
C      -1.547934   -2.589362   -1.168029
C      -2.081893   -3.263890    0.065957
C      -1.070366   -4.294087    0.578639
C      -0.002953   -3.157042    0.695623
H       1.233835    0.654966   -1.173367
H       0.300219   -0.790123   -1.425268
H      -1.239133   -0.728172    1.802060
H      -2.149524   -0.314816    0.361059
H      -2.236830   -1.906609   -1.656785
H      -0.904469   -3.139622   -1.853585
H      -3.138117   -3.236209    0.307607
H      -1.335785   -4.712950    1.551438
H      -0.842487   -5.118940   -0.104489
H       0.905879   -3.259550    0.093621
H       0.290259   -2.970710    1.731651
