17

C       0.020931    1.420989   -0.104565
C       0.108361   -0.095254   -0.033065
O       0.811464   -0.532372    1.152902
C       2.134345   -0.724190    1.043520
O       2.776354   -0.573251    0.031568
C       2.759447   -1.161997    2.354420
O       4.134137   -1.370206    2.207962
C      -1.249118   -0.782759    0.016904
O      -2.234261   -0.348642   -0.516332
H       1.010331    1.852619   -0.268317
H      -0.635444    1.699364   -0.932032
H      -0.400873    1.824586    0.819793
H       0.647001   -0.487020   -0.905725
H       2.545788   -0.388719    3.107895
H       2.248060   -2.076527    2.689957
H       4.338016   -1.161187    1.284836
H      -1.247504   -1.743221    0.576900
