23

C       0.108690    1.575757    0.009355
C       0.039897    0.043331    0.022389
C       0.514277   -0.546119   -1.323253
C       0.748670   -2.033478   -1.270511
C       1.087468   -2.666270   -0.146061
C       1.264477   -1.977689    1.161364
C       1.128518   -2.850922    2.392784
C       2.263613   -0.824464    1.200858
C       0.783159   -0.542417    1.213144
H       1.145566    1.917007   -0.087166
H      -0.461947    1.991403   -0.828363
H      -0.296497    2.000577    0.933903
H      -1.013317   -0.248535    0.143732
H      -0.222658   -0.305655   -2.098733
H       1.437869   -0.036285   -1.638001
H       0.659809   -2.590350   -2.199402
H       1.259148   -3.740540   -0.156421
H       1.865829   -3.662799    2.385319
H       1.283687   -2.271108    3.307999
H       0.133339   -3.306827    2.450406
H       2.819223   -0.669594    2.120552
H       2.831634   -0.625958    0.298564
H       0.381211   -0.225189    2.173249
