18

C      -0.326683    1.049776   -0.365461
C       1.045762    1.131257    0.254388
C       0.375975   -0.205276    0.095753
N      -0.095085   -0.844250    1.287243
C      -1.085018   -1.814851    1.183547
N      -1.185192   -2.769041    2.108122
N      -2.271649   -3.485987    1.724259
C      -2.839717   -3.020138    0.592314
C      -2.099220   -1.925965    0.196875
H      -1.163849    1.386971    0.233889
H      -0.425270    1.218226   -1.432063
H       1.893514    1.355292   -0.382746
H       1.113631    1.529085    1.260470
H       0.761682   -0.857322   -0.690474
H       0.636386   -1.125146    1.927120
H      -2.550678   -4.274932    2.279393
H      -3.709943   -3.487733    0.158632
H      -2.262977   -1.299087   -0.662557
