19

C      -0.078750    1.477262    0.038524
C       0.078101   -0.039143    0.010041
N       0.605389   -0.476388   -1.277855
C       0.783294   -1.838954   -1.480167
N       0.253177   -2.772028   -0.695694
N       0.621563   -3.941432   -1.276832
C       1.370207   -3.765784   -2.398105
C       1.500050   -2.405090   -2.571595
N       2.212223   -1.646167   -3.529672
H       0.887543    1.979452   -0.091409
H      -0.744725    1.815870   -0.760807
H      -0.492732    1.802901    0.997181
H       0.711949   -0.375006    0.846856
H      -0.891472   -0.526760    0.150981
H       1.424775    0.043200   -1.571646
H       0.367507   -4.804030   -0.832160
H       1.744182   -4.598152   -2.973693
H       2.726566   -2.235574   -4.172889
H       1.587305   -1.060714   -4.076560
