23

C      -0.002599    1.553676    0.220040
C      -0.010022    0.041820   -0.032147
C       0.724395   -0.443941   -1.307136
C       2.182120    0.061122   -1.343591
C       0.719997   -1.986459   -1.295909
O       1.141524   -2.528611   -2.535141
C       0.229124   -2.251429   -3.579437
C      -0.249027   -0.826543   -3.575621
C      -0.009421   -0.003323   -2.557790
H       1.012581    1.938066    0.354281
H      -0.464455    2.111054   -0.601162
H      -0.566155    1.788783    1.128297
H       0.446938   -0.460118    0.832154
H      -1.048583   -0.310282   -0.075180
H       2.685587   -0.130198   -0.388192
H       2.731066   -0.457501   -2.133578
H       2.236635    1.134981   -1.544421
H       1.417854   -2.369348   -0.544030
H      -0.289115   -2.352541   -1.042726
H       0.755735   -2.478613   -4.514224
H      -0.636778   -2.938785   -3.529323
H      -0.805907   -0.497197   -4.449365
H      -0.344177    1.029979   -2.604891
