19

C       0.553450    0.395233    0.092206
N      -0.417954   -0.125551   -0.876359
C      -1.505562   -0.830751   -0.332123
C      -1.667419   -1.989312    0.405012
N      -0.705019   -2.904053    0.843528
C       0.280709   -3.375717   -0.120343
N      -2.985930   -2.170453    0.743265
C      -3.630140   -1.140519    0.229293
N      -2.794546   -0.309967   -0.431693
H       1.345476    0.924024   -0.447438
H       0.054555    1.112050    0.750894
H       1.013174   -0.378624    0.724518
H       0.051202   -0.647313   -1.606973
H      -1.180119   -3.669596    1.304670
H      -0.160713   -3.784685   -1.043812
H       0.958021   -2.563006   -0.401942
H       0.889089   -4.154622    0.347002
H      -4.692541   -0.963958    0.306007
H      -3.020762    0.539144   -0.922097
