18

C      -0.000636    1.491845    0.045639
C      -0.047293    0.003376   -0.018930
C      -0.049351   -0.819410   -1.073433
C      -0.006207   -2.261374   -0.551859
C      -0.860293   -2.096667    0.733598
C       0.012243   -0.919386    1.220804
N       1.322227   -1.613969    1.236745
C       1.409379   -2.374434    0.077077
O       2.383313   -2.944394   -0.350967
H       0.913240    1.838869    0.546442
H      -0.027777    1.938908   -0.951767
H      -0.842210    1.894967    0.623445
H       0.005783   -0.552368   -2.120648
H      -0.240192   -3.055768   -1.255887
H      -1.890397   -1.809828    0.517177
H      -0.827698   -2.953407    1.411796
H      -0.221880   -0.472804    2.186996
H       2.155935   -1.151450    1.567750
