19

C      -0.034887    1.562537    0.117128
C       0.017044    0.047075    0.051584
O      -1.283051   -0.530439   -0.056233
C       1.065624   -0.609796   -0.929377
C       1.721042   -1.261028    0.294063
O       2.082501   -0.202988    1.203589
C       0.733935   -0.681307    1.216320
C       0.052239   -1.149720    2.476938
O      -0.996940   -0.271689    2.850769
H       0.967161    1.963432    0.283909
H      -0.416139    1.979844   -0.823677
H      -0.682790    1.885536    0.936585
H      -1.749497   -0.093374   -0.776869
H       0.573070   -1.333557   -1.582961
H       1.702910    0.060209   -1.512357
H       2.292524   -2.179746    0.360242
H      -0.320905   -2.174712    2.335242
H       0.774514   -1.165949    3.298061
H      -1.626408   -0.290981    2.118394
