23

O      -0.063021    1.493720    0.010624
C       0.039857    0.077416    0.002000
C      -1.370117   -0.497419    0.012396
C      -1.393230   -2.028620    0.004385
C      -2.811452   -2.609449    0.014826
C      -2.835924   -4.140428    0.006840
C      -4.268846   -4.710496    0.017513
C      -4.305653   -6.167932    0.010130
C      -4.307809   -7.370074    0.003614
H       0.826014    1.859803    0.003991
H       0.579384   -0.277499   -0.891886
H       0.596359   -0.287063    0.881516
H      -1.893202   -0.116171    0.898175
H      -1.910013   -0.106723   -0.859063
H      -0.857440   -2.400072   -0.880217
H      -0.840657   -2.409504    0.874533
H      -3.348603   -2.239912    0.899392
H      -3.365385   -2.230489   -0.855286
H      -2.309931   -4.519056   -0.877644
H      -2.293134   -4.528471    0.876979
H      -4.803323   -4.336836    0.901102
H      -4.820101   -4.327494   -0.851656
H      -4.322384   -8.431447   -0.002216
