18

C      -0.028337    1.413928    0.103299
O       0.000260    0.015098   -0.139131
C      -1.257803   -0.614350   -0.052521
C      -1.217679   -2.004759   -0.650718
C      -0.272380   -3.017371   -0.034611
C      -1.715041   -2.963614    0.401062
N      -2.012476   -2.170491    1.560964
C      -1.680622   -0.846408    1.428784
O      -1.677389   -0.020535    2.315657
H       0.993667    1.773612   -0.037776
H      -0.687169    1.924353   -0.617055
H      -0.366121    1.642507    1.118107
H      -2.027174    0.001018   -0.546584
H      -1.501600   -2.131867   -1.687097
H       0.036152   -3.839634   -0.670941
H       0.483458   -2.662297    0.656821
H      -2.408502   -3.763900    0.171129
H      -2.096226   -2.567673    2.485127
