14

C       0.260601    1.297779   -0.520630
C      -0.172518    0.215165    0.472317
C      -1.518048   -0.337384    0.175108
C      -2.439771   -0.109206   -0.758850
O      -3.527922   -0.937115   -0.540688
C      -3.248865   -1.689745    0.564868
O      -3.955406   -2.512519    1.049823
O      -2.007569   -1.327596    1.016863
H       1.253446    1.673424   -0.262693
H       0.303975    0.904685   -1.540921
H      -0.432644    2.144371   -0.510639
H       0.552106   -0.609336    0.477731
H      -0.175089    0.614421    1.494792
H      -2.492099    0.558128   -1.599559
