21

C       0.376412    1.470080    0.069675
C       0.003795    0.009555   -0.056742
C      -0.201580   -0.521072   -1.267361
C      -0.567072   -1.928035   -1.656215
O      -0.207445   -2.954437   -0.751701
C      -1.002920   -3.025768    0.410595
C      -0.546763   -2.096037    1.515801
C       0.910133   -1.770842    1.677341
C      -0.077473   -0.682559    1.261854
H       1.337284    1.586323    0.586737
H       0.452232    1.957391   -0.905250
H      -0.366032    2.015019    0.667079
H      -0.097183    0.140852   -2.126515
H      -1.650883   -1.988322   -1.870088
H      -0.055202   -2.175353   -2.594078
H      -2.060771   -2.836680    0.162870
H      -0.929631   -4.061402    0.765586
H      -1.118633   -2.229273    2.432046
H       1.341576   -1.728875    2.671555
H       1.570057   -2.132254    0.897405
H      -0.319393    0.008672    2.065864
