25

C       0.065540    1.457767    0.145322
C      -0.014134   -0.068470   -0.007995
C       0.862818   -0.755521    1.048719
C      -1.469295   -0.571495    0.052646
C      -2.356910    0.005600   -1.053853
O      -1.419504   -1.995739   -0.024121
C      -2.620018   -2.678941    0.291026
C      -2.238436   -4.117562    0.605833
O      -1.370448   -4.194076    1.718510
H       1.109951    1.784526    0.144117
H      -0.444180    1.987525   -0.663348
H      -0.378491    1.782211    1.094323
H       0.374560   -0.337872   -0.999996
H       0.477654   -0.573729    2.059563
H       0.907123   -1.834342    0.888729
H       1.885701   -0.367181    1.010650
H      -1.893057   -0.290675    1.033994
H      -3.369838   -0.402523   -0.999886
H      -2.441951    1.091335   -0.966677
H      -1.944229   -0.235040   -2.039299
H      -3.099571   -2.222187    1.171232
H      -3.335794   -2.651507   -0.544658
H      -3.137762   -4.690760    0.854921
H      -1.786900   -4.571504   -0.291054
H      -0.675925   -3.546827    1.549875
