19

C       0.031027    1.481975    0.298623
O       1.438140    1.530220   -0.136417
C       1.164768    0.357648   -0.905950
C      -0.022954   -0.027133   -0.074997
C      -0.772138   -0.919559   -1.084776
C       0.377947   -1.038473   -2.131139
C       0.817521    0.411483   -2.440104
C       2.249980   -0.070766   -2.769639
C       1.858420   -0.878701   -1.508651
H      -0.065094    1.747666    1.353797
H      -0.589094    2.141550   -0.320521
H       0.288537   -0.601520    0.802585
H      -1.093971   -1.870951   -0.653318
H      -1.645530   -0.451993   -1.552329
H       0.274071   -1.741933   -2.958474
H       0.222214    1.165340   -2.958107
H       2.369531   -0.632641   -3.700681
H       3.057983    0.653566   -2.644309
H       2.431014   -1.644014   -0.982342
