20

C       0.004322    1.438276    0.119657
C       1.283214    0.699087   -0.027653
N      -0.025578   -0.028174    0.035481
C      -0.309946   -0.577511   -1.330294
C       0.900045   -0.312168   -2.215155
C       1.279803    1.080123   -2.634876
C       1.896006    0.511154   -1.385150
C       3.027734   -0.476257   -1.728287
C       2.014309   -1.314316   -2.580305
H      -0.282344    1.844009    1.087663
H      -0.363722    2.023219   -0.719340
H       1.934991    0.576674    0.833264
H      -0.463940   -1.655806   -1.222475
H      -1.244846   -0.150975   -1.710506
H       1.907094    1.215067   -3.513960
H       0.531935    1.854201   -2.517683
H       3.890111   -0.052153   -2.252614
H       3.389201   -1.023792   -0.854679
H       1.841885   -2.308997   -2.162560
H       2.232317   -1.421054   -3.648167
