19

C       0.174723    1.584499    0.025186
C       0.007245    0.058659   -0.009835
O       0.643955   -0.421605    1.181977
C      -1.479936   -0.379445   -0.037622
C      -2.275523    0.068706    1.205145
C      -3.606396   -0.523097    1.249068
C      -4.698387   -1.025564    1.262168
C       0.677793   -0.496509   -1.196008
C       1.215048   -0.984337   -2.154615
H       1.235419    1.839082   -0.017510
H      -0.335043    2.048715   -0.822511
H      -0.236570    1.984101    0.955109
H       0.752430   -1.374992    1.092378
H      -1.952950    0.001630   -0.948233
H      -1.511597   -1.472246   -0.105196
H      -1.709887   -0.209155    2.101596
H      -2.366759    1.161005    1.223000
H      -5.665118   -1.463580    1.287177
H       1.697723   -1.404957   -3.002315
