16

C      -0.099454    1.510071    0.082434
C      -0.000597    0.014324   -0.000735
C       0.064112   -0.653866   -1.161546
N       0.112657   -2.043585   -1.245134
C       0.002193   -2.915479   -0.180364
O      -0.163436   -4.109173   -0.331576
C       0.078810   -2.259162    1.168210
O       1.277622   -1.538651    1.452779
C       0.073248   -0.775046    1.250168
H       0.767674    1.944217    0.595720
H      -0.162134    1.960867   -0.911698
H      -0.988427    1.821426    0.645952
H       0.069189   -0.148373   -2.120349
H       0.064464   -2.483375   -2.152277
H      -0.303072   -2.875000    1.979084
H      -0.306655   -0.314599    2.161160
