23

C      -0.081178    1.538374    0.021190
C       0.037996    0.010851   -0.055782
C       0.704253   -0.473203   -1.319002
C       0.263747   -0.259336   -2.786735
C       1.549782   -1.096796   -2.895626
C       2.228814   -0.356029   -1.698193
C       2.587871   -1.674230   -0.989892
C       1.203365   -1.948119   -1.619117
C       0.382067   -3.208036   -1.562760
H       0.905110    2.013178   -0.011072
H      -0.665956    1.932182   -0.816595
H      -0.573322    1.850243    0.947528
H       0.599297   -0.358471    0.812889
H      -0.962310   -0.437878    0.015601
H      -0.672089   -0.736397   -3.098926
H       0.311808    0.764809   -3.172416
H       2.059643   -1.465533   -3.787943
H       2.803142    0.569676   -1.766618
H       3.431280   -2.239305   -1.402488
H       2.644337   -1.656781    0.104210
H       0.130418   -3.470670   -0.528769
H      -0.556824   -3.099624   -2.117519
H       0.928345   -4.054086   -1.995113
