16

N      -0.068250    1.377413    0.040372
C       0.036976   -0.010679   -0.049835
O       1.128258   -0.556006   -0.199897
C      -1.201175   -0.753202   -0.009052
C      -1.349839   -2.138404    0.080876
N      -0.313374   -3.035842    0.227357
C      -2.746131   -2.413726    0.087270
C      -3.402144   -1.205248   -0.008791
N      -2.484157   -0.200656   -0.029287
H       0.832969    1.821273    0.154535
H      -0.772181    1.735064    0.670598
H       0.578494   -2.646624   -0.054899
H      -0.490565   -3.966526   -0.117683
H      -3.210087   -3.384843    0.168514
H      -4.458545   -0.992595   -0.063135
H      -2.678662    0.736760   -0.336754
