18

C       1.087520    0.514952   -1.065552
C       0.038802    0.007053   -0.057678
C       0.682017   -0.600436    1.166012
C       0.816662   -2.099131    1.273232
C      -0.524065   -2.811062    1.521044
N       1.155585    0.074080    2.144236
O       0.985799    1.461632    1.960789
H       1.744030   -0.295148   -1.399395
H       0.598775    0.936302   -1.949253
H       1.706451    1.290884   -0.609780
H      -0.596069    0.842466    0.250908
H      -0.602520   -0.738471   -0.538379
H       1.263637   -2.481661    0.345416
H       1.511179   -2.324469    2.087032
H      -0.965374   -2.484467    2.467475
H      -1.247514   -2.607229    0.725211
H      -0.380289   -3.894727    1.568169
H       1.368582    1.816436    2.769521
