18

C      -0.054489    1.532660   -0.003674
C       1.391303    2.005589   -0.023175
C       2.439363    1.239761   -0.348203
C       2.348662   -0.203124   -0.814132
C       0.896133   -0.463558   -1.175129
N       0.399327   -1.833052   -1.428040
C      -0.778744   -1.814866   -0.950241
O      -1.222704   -0.711989   -0.277750
C       0.003269    0.023040   -0.040667
H      -0.562609    1.904460    0.893314
H      -0.608994    1.924043   -0.867073
H       1.563306    3.036234    0.275746
H       3.436321    1.670522   -0.297680
H       3.011062   -0.368314   -1.671086
H       2.687153   -0.888766   -0.025037
H       0.675807    0.123146   -2.082138
H      -1.505152   -2.616292   -1.027939
H       0.402861   -0.343520    0.917678
