20

C       0.339671    1.499353    0.034692
C       0.136601   -0.017026    0.066765
C      -1.352731   -0.436253   -0.024955
N      -1.976287   -0.007429   -1.262614
C      -2.822269    1.054471   -1.323069
O      -3.013940    1.847712   -0.423792
C      -1.464425   -1.964246    0.064522
C      -1.343299   -2.591909    1.435276
O      -1.644110   -2.625183   -0.934705
H       1.402833    1.742201    0.124931
H      -0.026401    1.926938   -0.901891
H      -0.196852    1.989724    0.851857
H       0.679089   -0.489023   -0.761791
H       0.560863   -0.424083    0.992073
H      -1.898295    0.030002    0.803064
H      -2.011527   -0.712382   -1.987095
H      -3.318061    1.129789   -2.310640
H      -0.509137   -2.172252    2.004266
H      -2.256028   -2.373497    2.003231
H      -1.231278   -3.672592    1.341405
