17

C      -0.014584    1.584284   -0.006458
O       1.383226    1.936803   -0.003141
C       2.104052    0.725886   -0.154055
C       2.027099   -0.199185    1.083875
O       2.496499   -1.436813    0.613989
C       1.828535   -1.617215   -0.656386
C       1.201475   -0.249648   -0.943810
C       0.036369    0.060156    0.027673
O       0.616173   -0.276948    1.311829
H      -0.499268    1.987019    0.887477
H      -0.503573    1.988219   -0.903871
H       3.109152    0.930220   -0.518470
H       2.542580    0.065906    2.004792
H       2.570603   -1.903543   -1.408905
H       1.084894   -2.419149   -0.574502
H       1.016278   -0.015231   -1.991161
H      -0.906740   -0.470300   -0.104528
