22

C       0.761041    1.314253    0.112589
N       0.005958    0.070588    0.098404
C      -0.941833   -0.132430    1.057981
O      -1.171230    0.606459    1.995852
C       0.118198   -0.808699   -1.065978
C      -0.729483   -0.282247   -2.232019
C       1.573574   -1.157534   -1.506364
C       1.125221   -2.628551   -1.710906
C      -0.110198   -2.334073   -0.821047
H       1.835507    1.119886    0.039373
H       0.472116    1.974418   -0.714284
H       0.544082    1.816719    1.055029
H      -1.495877   -1.075447    0.901207
H      -0.426444    0.730770   -2.514741
H      -0.624787   -0.918378   -3.116282
H      -1.787943   -0.256862   -1.953340
H       1.978327   -0.616005   -2.364968
H       2.269640   -1.069659   -0.668504
H       0.854973   -2.845551   -2.747089
H       1.808295   -3.405712   -1.364451
H       0.081250   -2.603586    0.219990
H      -1.075425   -2.746873   -1.123989
