23

C       0.259297    1.437722    0.005380
C      -0.052891   -0.056490    0.003029
C      -1.543951   -0.348490    0.015368
O      -2.405704    0.497755    0.028526
O      -1.752035   -1.677048    0.009479
C      -3.106201   -2.246729    0.019419
C      -3.865324   -1.823128   -1.242361
C      -2.837688   -3.752965    0.008039
C      -3.840491   -1.837928    1.300628
H       1.340371    1.603060   -0.003010
H      -0.172905    1.929488   -0.869728
H      -0.158443    1.923599    0.890719
H       0.376274   -0.555628   -0.873835
H       0.391453   -0.561272    0.869086
H      -3.293575   -2.088609   -2.137026
H      -4.823905   -2.349850   -1.285512
H      -4.054167   -0.749848   -1.248389
H      -2.258183   -4.047639    0.887275
H      -3.782401   -4.304078    0.014072
H      -2.275515   -4.037342   -0.885721
H      -4.029031   -0.764808    1.322854
H      -4.798124   -2.365195    1.356323
H      -3.251439   -2.113784    2.180812
