12

O      -0.060942    1.367742    0.136975
C       0.094298    0.013247    0.087687
C      -0.167336   -0.854910   -1.153195
O       0.540203   -2.087408   -1.007418
C       0.039714   -2.104235    0.365379
C      -1.063881   -1.056745    0.008536
C       0.795075   -0.920736    1.037519
O       1.438198   -0.790752    2.037217
H       0.570621    1.781789   -0.462226
H      -0.332287   -0.434362   -2.137948
H      -0.068486   -3.088506    0.810488
H      -2.113372   -0.935894    0.229247
