22

C       0.201521    1.496744    0.089703
C      -0.068922    0.013962    0.119487
C      -1.516462   -0.471153    0.092735
C      -1.450494   -1.953376    0.514289
C      -0.177285   -2.087401    1.400476
C      -0.487925   -1.891917    2.888810
O       0.491385   -3.332566    1.195462
C       0.730604   -0.971929    0.901922
N       0.928420   -0.838596   -0.546607
H       1.275667    1.691341    0.134538
H      -0.181233    1.943452   -0.835433
H      -0.283891    2.003809    0.931316
H      -2.101429    0.113884    0.813185
H      -1.990377   -0.328870   -0.885813
H      -2.353668   -2.281656    1.037158
H      -1.332485   -2.607640   -0.354712
H      -1.142653   -2.692637    3.253615
H       0.433455   -1.909156    3.478230
H      -0.997440   -0.939599    3.068979
H      -0.061759   -4.030255    1.562978
H       1.581761   -0.694138    1.518302
H       0.509421   -1.620583   -1.043372
