15

C       0.164381   -1.196932   -0.034132
C       0.042363    0.001677    0.000572
C      -0.034104    1.406219    0.041474
C      -1.134960    2.187408    0.061162
C      -0.708920    3.638499    0.104868
O       0.710581    3.620456    0.108471
C       1.195809    2.286865    0.070811
C      -2.486650    1.796309    0.045797
C      -3.658864    1.516056    0.034228
H       0.252290   -2.254769   -0.064804
H      -1.082161    4.196287   -0.767120
H      -1.087315    4.144401    1.005801
H       1.819492    2.081676    0.953825
H       1.824597    2.133595   -0.819096
H      -4.686891    1.250097    0.023613
