21

C       0.131071    1.594537   -0.166209
C       0.014076    0.102385    0.041261
O       0.931592   -0.674795   -0.815222
C       1.034765   -1.656185    0.258888
C       2.276640   -2.291416    0.928973
C       2.125114   -1.545044    2.295146
C       2.042189   -0.091478    1.769182
C       0.661429   -0.585277    1.263468
C       0.566272   -1.404178    2.576595
H       1.144774    1.944711    0.043835
H      -0.114915    1.853502   -1.200766
H      -0.567463    2.122224    0.492083
H      -1.016770   -0.238703   -0.137234
H       0.247047   -2.407847    0.106854
H       2.193696   -3.379599    0.993531
H       3.229920   -2.045930    0.453684
H       2.802974   -1.827108    3.101705
H       1.941950    0.652091    2.564189
H       2.783129    0.227587    1.032900
H      -0.056616   -2.303019    2.566129
H       0.388829   -0.827198    3.487208
