16

C       0.118830    1.426297   -0.041005
C      -0.003032   -0.086211   -0.021524
O       0.948056   -0.822792    0.041698
C      -1.445959   -0.644007   -0.074059
O      -1.464116   -1.981554   -0.527617
C      -1.763146   -2.864409    0.552572
C      -2.190928   -1.963581    1.677164
C      -2.034061   -0.694326    1.320127
H       1.141391    1.721542    0.196617
H      -0.141999    1.799723   -1.038602
H      -0.579473    1.891176    0.663608
H      -2.039172   -0.019449   -0.760734
H      -2.552693   -3.560766    0.236107
H      -0.877941   -3.462277    0.817533
H      -2.559887   -2.330020    2.626473
H      -2.242635    0.185786    1.913671
