16

C       0.025054   -1.237625   -0.088595
C       0.014363   -0.036549   -0.033972
C       0.010618    1.409874    0.063085
C      -0.219167    2.067845    1.477684
C       1.134344    2.772573    1.368510
C       2.236035    1.779953    1.179180
C       1.382214    2.135453   -0.016226
C       1.911616    2.719799   -1.202293
N       2.321974    3.198346   -2.173645
H       0.030697   -2.297766   -0.153474
H      -0.681952    1.837451   -0.665883
H      -1.070599    2.749315    1.467279
H      -0.324283    1.370808    2.312090
H       1.333463    3.798030    1.651405
H       3.240141    2.188119    1.154862
H       2.158974    0.776661    1.589304
