19

C      -0.018426    1.506866   -0.004031
C       0.001936    0.006108    0.019657
C      -0.150692   -0.838589   -1.238626
C       0.708549   -2.086068   -1.403091
C       0.862309   -2.561314    0.039087
O       1.779889   -1.657044    0.722935
C       0.650779   -0.862784    1.130290
C      -0.370359   -1.968912    0.822619
C      -1.139499   -1.015200   -0.118491
H       0.977855    1.912813   -0.217039
H      -0.700113    1.882297   -0.774834
H      -0.346527    1.918974    0.957372
H      -0.465940   -0.286348   -2.118582
H       0.186011   -2.827910   -2.020208
H       1.691018   -1.894953   -1.844512
H       1.151382   -3.605758    0.173299
H       0.779681   -0.379778    2.102062
H      -0.866157   -2.562091    1.585994
H      -2.209649   -0.868321   -0.185569
