25

C       0.320224    1.323841    0.298712
C      -0.160413   -0.025998   -0.239518
C       0.833668   -0.653269   -1.206496
O       0.303230   -1.886898   -1.664358
C       1.121327   -2.531494   -2.590117
C       2.162422   -3.526833   -2.110053
C       2.408617   -3.757079   -0.634242
C       0.884834   -4.000608   -2.794535
C      -0.215321   -4.728930   -2.051343
H       1.269487    1.224599    0.836745
H       0.473305    2.045366   -0.511522
H      -0.409518    1.753407    0.991001
H      -0.331909   -0.725091    0.587311
H      -1.121060    0.089021   -0.754484
H       1.011103    0.019072   -2.063279
H       1.806391   -0.812326   -0.714926
H       1.361193   -1.917236   -3.460298
H       3.058763   -3.588876   -2.722845
H       1.535744   -3.489244   -0.035129
H       2.649807   -4.805950   -0.428402
H       3.250886   -3.151800   -0.281298
H       1.018231   -4.342194   -3.818203
H      -0.420227   -4.273795   -1.081366
H      -1.147266   -4.702063   -2.626178
H       0.046502   -5.780643   -1.891647
