12

O       0.132007    1.393914   -0.044974
C       0.101409   -0.007363    0.069249
C      -1.355183   -0.508505    0.050740
O      -2.017272    0.023837   -1.103915
C      -1.432500   -1.964573    0.114552
C      -1.452070   -3.166553    0.125548
H      -0.493620    1.609790   -0.749271
H       0.653758   -0.504726   -0.746283
H       0.581637   -0.280663    1.013880
H      -1.879730   -0.062067    0.903240
H      -1.782569   -0.534190   -1.854776
H      -1.486257   -4.228004    0.152217
