27

C       0.097219    1.530028    0.466447
C      -0.026685    0.037045    0.150388
C       0.769192   -0.383214   -1.092424
C       0.692921   -1.881866   -1.398211
C      -0.713207   -2.399789   -1.793784
C      -0.473958   -3.679227   -2.644840
C       1.064445   -3.818726   -2.765971
C       1.616569   -2.397927   -2.532332
C       1.579983   -1.548871   -3.811457
H       1.141125    1.811729    0.644868
H      -0.271008    2.142795   -0.364103
H      -0.477195    1.800046    1.358345
H       0.316559   -0.549511    1.013370
H      -1.084428   -0.219065    0.011809
H       0.408910    0.189747   -1.957580
H       1.821110   -0.095529   -0.952985
H       0.999213   -2.419356   -0.488334
H      -1.333506   -2.598194   -0.915633
H      -1.242394   -1.639292   -2.379815
H      -0.920866   -4.567137   -2.189151
H      -0.933995   -3.575765   -3.632153
H       1.440756   -4.486763   -1.982677
H       1.376887   -4.243596   -3.725095
H       2.655188   -2.437894   -2.182289
H       0.564919   -1.453610   -4.212747
H       1.962462   -0.538410   -3.638985
H       2.197904   -2.007205   -4.590833
