21

C       0.099420    1.365770    0.090250
O      -0.198231    0.010055   -0.145375
C       0.562821   -0.570400   -1.182866
C       2.065803   -0.812909   -0.840915
C       2.356103   -2.177234   -1.456082
C       1.567119   -3.385118   -0.973486
C       0.264675   -2.945698   -0.301566
C       0.028537   -1.969767   -1.500677
C       1.183056   -2.674229   -2.261518
H       1.134971    1.513100    0.431822
H      -0.053356    1.978037   -0.813235
H      -0.578881    1.717568    0.871772
H       0.491779    0.060750   -2.085911
H       2.714681   -0.040792   -1.264839
H       2.206823   -0.800862    0.245806
H       3.354877   -2.396205   -1.817612
H       2.052526   -4.347402   -0.855576
H      -0.472192   -3.752477   -0.299043
H       0.310707   -2.500910    0.697011
H      -0.970265   -1.970489   -1.935230
H       1.207810   -3.005508   -3.290914
