18

C       0.056894    1.489894    0.072124
C       0.074947   -0.000197    0.005427
C       0.049535   -0.770774   -1.100741
C       0.030972   -2.252954   -0.769115
C       0.477466   -2.271347    0.713867
O       1.869369   -2.510820    0.843931
C       0.084009   -0.869934    1.241688
C      -0.001476   -0.281723   -2.433208
N      -0.039752    0.098750   -3.527666
H       0.934853    1.864258    0.612757
H       0.039299    1.942947   -0.921573
H      -0.821328    1.839851    0.628985
H      -0.978705   -2.663628   -0.896094
H       0.704737   -2.852920   -1.387503
H      -0.000266   -3.075656    1.277076
H       2.335574   -1.842996    0.327645
H       0.785777   -0.529334    2.010642
H      -0.914161   -0.875034    1.702503
