21

C       0.105527    1.592008   -0.300881
C       0.066640    0.144090   -0.148184
C       0.036409   -1.053538   -0.019773
C      -0.012831   -2.505441    0.119514
C       0.730215   -3.191665   -1.046574
C       0.540407   -3.008682    1.494682
C      -0.464474   -4.107184    1.926154
O      -1.361034   -4.293477    0.835308
C      -1.469877   -3.038905    0.193925
H       1.136482    1.960166   -0.348896
H      -0.401211    1.909979   -1.218913
H      -0.386127    2.095645    0.538878
H       1.793876   -2.938022   -1.031326
H       0.626203   -4.277668   -0.964373
H       0.319053   -2.873426   -2.008978
H       1.556778   -3.394211    1.385086
H       0.571223   -2.193855    2.219953
H       0.003862   -5.072015    2.137829
H      -1.019468   -3.792275    2.822888
H      -2.098432   -2.343093    0.772037
H      -1.922398   -3.193442   -0.788666
