15

C      -0.006649    1.459006   -0.021533
N      -0.008146   -0.004203   -0.020022
C      -0.024588   -0.699553    1.179191
O      -0.038354   -0.167854    2.263847
C       0.007379   -0.639170   -1.243135
N       0.023468   -0.066345   -2.405747
C       0.034083   -1.137213   -3.298090
C       0.023697   -2.298716   -2.614455
O       0.006178   -1.989929   -1.266931
H       0.887005    1.833452   -0.525646
H      -0.885836    1.835226   -0.549207
H      -0.020157    1.776433    1.019450
H      -0.023706   -1.789119    1.032391
H       0.048409   -0.980444   -4.364613
H       0.025781   -3.345411   -2.860386
