20

C      -0.559562   -0.056904    0.798040
C       0.379562    0.540882   -0.251437
N       0.818407   -0.492404   -1.186445
C       2.036570   -0.741710   -1.303647
O       3.153571   -0.142231   -0.694773
C       4.025406   -0.927112   -1.546716
C       3.849014   -2.370345   -1.233609
C       2.851421   -1.659388   -2.161746
C       2.509623   -2.106321   -3.551170
H      -1.403184   -0.559786    0.316728
H      -0.034806   -0.792876    1.415168
H      -0.948685    0.726342    1.456346
H      -0.165151    1.296478   -0.831306
H       1.221318    1.047707    0.237532
H       4.884429   -0.427982   -1.974140
H       4.511714   -3.056713   -1.753390
H       3.566576   -2.668754   -0.228604
H       1.715007   -2.859223   -3.531295
H       2.158549   -1.267099   -4.159176
H       3.379078   -2.549988   -4.045601
