11

O      -0.053049    0.271831    0.873990
C      -0.058956    1.243377    0.186866
O      -1.207753    1.897409   -0.137796
C      -1.107917    2.882561   -1.151843
O      -0.144478    3.880530   -0.860941
C       1.122426    3.446822   -0.616504
O       2.048592    4.191515   -0.555474
C       1.228096    1.926724   -0.338298
O       2.257114    1.330892   -0.459296
H      -0.881415    2.409848   -2.115136
H      -2.071619    3.385418   -1.189822
