15

C       0.098550   -1.158056    0.067832
C      -0.016009    0.040578    0.006801
C      -0.083568    1.442238   -0.080735
C      -1.135643    2.279247   -0.061342
C      -0.513596    3.667327    0.014964
O      -0.019339    3.822224    1.367055
C       1.142494    2.983159    1.401092
C       1.135568    2.377922   -0.037261
O       0.658650    3.524251   -0.754547
H       0.180479   -2.215318    0.123515
H      -2.184356    2.040315    0.036848
H      -1.094867    4.542344   -0.265040
H       2.033152    3.598077    1.564365
H       1.056183    2.229028    2.188856
H       2.079661    2.010630   -0.430739
