23

C      -0.157030    1.586351    0.023509
C      -0.069267    0.058482    0.000064
C       0.735394   -0.475800   -1.190604
C       0.782382   -2.008827   -1.245777
O      -0.527092   -2.562086   -1.246153
C       1.608987   -2.550148   -2.446319
C       3.081462   -2.086719   -2.431457
C       1.543589   -4.010294   -2.499007
C       1.537605   -5.211487   -2.541123
H       0.837168    2.043980    0.081736
H      -0.642643    1.970471   -0.880909
H      -0.734739    1.937775    0.884079
H       0.391604   -0.298055    0.930717
H      -1.072704   -0.377908   -0.025785
H       0.298955   -0.101053   -2.130075
H       1.754762   -0.075382   -1.146649
H       1.239180   -2.389882   -0.323707
H      -0.957661   -2.304389   -2.069312
H       1.138882   -2.154658   -3.360999
H       3.633383   -2.561454   -3.246040
H       3.160621   -1.003873   -2.552168
H       3.564452   -2.369206   -1.490743
H       1.510602   -6.272323   -2.575543
