18

C      -0.081642    1.546555    0.018936
C      -0.003426    0.040149   -0.056819
C       0.707188   -0.578062   -1.233032
C       0.192782   -1.787257   -1.451101
C      -0.933989   -1.990927   -0.501533
C      -0.740887   -1.682088    0.960888
C       0.410473   -0.758248    1.253198
O       1.675380   -1.347714    1.402103
N      -1.366287   -0.675955    0.016340
H       0.920692    1.985144    0.086967
H      -0.571073    1.954747   -0.870923
H      -0.655967    1.863428    0.894845
H       1.581492   -0.144292   -1.701340
H       0.527066   -2.532361   -2.160572
H      -1.737923   -2.683455   -0.733474
H      -1.325766   -2.197656    1.716730
H       0.149488   -0.137128    2.120515
H       2.278379   -0.693774    1.769296
