15

O       0.079926    1.398977    0.201789
C      -0.026513    0.000209    0.068307
C      -1.445033   -0.515545   -0.052256
C      -2.262773   -0.103634   -1.256794
C      -1.485057   -1.396314   -1.280714
N      -0.169953   -1.344977   -1.867874
C       0.643485   -0.434345   -1.253764
O       1.682527    0.032324   -1.671885
H       0.925773    1.631146   -0.209008
H       0.480830   -0.512776    0.902024
H      -1.968339   -0.814923    0.846388
H      -3.340805   -0.161252   -1.154479
H      -1.903851    0.718733   -1.866278
H      -1.978878   -2.360350   -1.288355
H      -0.009532   -1.568319   -2.839661
