18

C      -0.101398    1.564413    0.019576
C       0.040475    0.062403    0.035346
O      -1.079875   -0.624314   -0.469221
C       1.334013   -0.672977   -0.240508
O       2.555372    0.041254   -0.086602
C       2.586386    0.390933    1.226599
N       1.634136    0.029419    1.985906
C       0.706342   -0.726697    1.157574
C       0.044776   -1.906255    1.819457
H       0.721074    2.068574    0.527590
H      -0.138952    1.935751   -1.011761
H      -1.034433    1.844449    0.517594
H      -1.140684   -0.432216   -1.412286
H       1.387143   -1.474939   -0.966960
H       3.454272    0.968356    1.521362
H      -0.531375   -1.572032    2.687923
H      -0.631748   -2.408288    1.127299
H       0.797415   -2.619440    2.169414
