18

C       0.001362    1.498930   -0.317228
C      -0.066035    0.039346    0.039299
O       1.149202   -0.715091   -0.017662
C       0.541624   -0.544218    1.262444
C       1.308709    0.221428    2.262691
C       2.475666    0.949478    2.158086
C       2.776033    1.469318    3.447367
C       1.787866    1.044331    4.303775
N       0.905566    0.283859    3.577382
H       0.793685    2.005009    0.238214
H       0.190099    1.619976   -1.389041
H      -0.952994    1.985763   -0.088319
H      -0.922706   -0.499153   -0.373419
H       0.064771   -1.448296    1.653216
H       3.052824    1.060704    1.254063
H       3.625843    2.077786    3.715794
H       1.638734    1.210615    5.358454
H       0.076855   -0.149369    3.946353
