20

C      -0.033283    1.526053    0.003236
C       0.008104    0.012420   -0.001613
N      -0.790463   -0.709014    1.031935
C       0.680975   -0.720583    1.115335
C       1.396000   -2.018711    0.860276
C       0.623208   -3.270326    0.558072
C       1.377447   -2.567133   -0.559822
C       0.664735   -1.782186   -1.588341
C       0.039948   -0.625831   -1.342900
H       0.814881    1.947366   -0.546858
H      -0.951076    1.892405   -0.472519
H      -0.001965    1.920983    1.024185
H      -1.163361   -0.034677    1.697628
H       1.137781   -0.101424    1.883915
H       2.328164   -2.128157    1.404031
H       1.021893   -4.215556    0.909655
H      -0.456300   -3.181733    0.559705
H       2.272885   -3.075199   -0.906560
H       0.669839   -2.180185   -2.600287
H      -0.459399   -0.096174   -2.150622
