10

N      -0.052639    1.284595    0.009460
C      -0.030809    0.023322    0.003279
O       1.111892   -0.754721   -0.007199
C       0.737687   -2.099835   -0.011303
O       1.539984   -2.981938   -0.020437
C      -0.746290   -2.136336   -0.002704
C      -1.193696   -0.877818    0.006047
H       0.894643    1.667621    0.005624
H      -1.296750   -3.065014   -0.003882
H      -2.208131   -0.507436    0.013901
