21

C       0.604412   -0.112393    1.279280
N       0.142209   -0.298037   -0.086698
C       0.939905   -1.285367   -0.796151
C      -1.285907   -0.549008   -0.147003
C      -1.878486   -0.370829   -1.541746
C      -2.052822   -1.576728   -2.457729
C      -3.254760   -0.965049   -1.809137
C      -1.589087    0.892874   -2.175021
N      -1.378247    1.905373   -2.693279
H       1.661878    0.168252    1.272131
H       0.042554    0.696131    1.756648
H       0.499717   -1.019703    1.905462
H       0.839972   -2.305722   -0.375447
H       0.655085   -1.320578   -1.849789
H       1.995324   -1.002898   -0.744732
H      -1.558488   -1.565196    0.206670
H      -1.776051    0.161069    0.528450
H      -1.907804   -1.425276   -3.520613
H      -1.688631   -2.524495   -2.077314
H      -3.719618   -1.488981   -0.981013
H      -3.935859   -0.388774   -2.422948
