17

C      -0.383558    1.648328   -0.063854
C      -0.135666    0.159415   -0.054853
O       1.067913   -0.203527   -0.844267
C       1.690876   -0.717577    0.256972
N       2.855965   -1.161520    0.426599
C       0.520542   -0.500650    1.186968
C       0.722722    0.313213    2.465457
N       1.957394    0.176020    3.005463
O      -0.176806    0.975902    2.946443
H       0.501297    2.196569    0.270444
H      -0.640058    1.979350   -1.074311
H      -1.204662    1.887465    0.615769
H      -0.991571   -0.395537   -0.446616
H       3.409303   -1.128534   -0.430187
H       0.037140   -1.440064    1.470310
H       2.681142   -0.336030    2.518199
H       2.163756    0.660052    3.863781
