13

C       0.009354    1.396775    0.058468
O       0.011113   -0.026391    0.014152
C       0.625195   -0.641237    1.039239
N       1.200632    0.014690    2.039442
N       1.685284   -0.975000    2.832307
C       1.426507   -2.212396    2.352056
C       0.731549   -2.046746    1.174849
H       1.030890    1.791625    0.055785
H      -0.523252    1.723933   -0.835754
H      -0.500006    1.761664    0.956709
H       2.174880   -0.724794    3.672572
H       1.748876   -3.100977    2.872048
H       0.355137   -2.804963    0.510034
