22

C      -0.018419    1.390378    0.070123
O      -0.025595   -0.015234    0.129752
C      -1.297849   -0.574883   -0.125812
C      -1.180277   -2.091893   -0.037249
C      -0.242573   -2.630103   -1.119219
C      -0.881250   -2.705741    1.362818
N      -2.100355   -3.594596    1.307666
C      -3.248679   -2.674812    1.276108
C      -2.495872   -2.880326    0.022712
H       0.999237    1.723390    0.288450
H      -0.307317    1.758583   -0.927111
H      -0.703943    1.834804    0.809377
H      -2.030266   -0.192516    0.603177
H      -1.656143   -0.280229   -1.128844
H       0.748653   -2.180436   -1.021016
H      -0.145115   -3.717465   -1.045985
H      -0.624965   -2.392159   -2.119086
H       0.029159   -3.306889    1.395795
H      -0.883368   -2.014350    2.212014
H      -4.203135   -3.185069    1.367890
H      -3.188126   -1.734503    1.819978
H      -2.916041   -3.426422   -0.817733
