23

C      -0.473596    1.490022    0.164699
C       0.023322    0.058381   -0.018563
C      -1.064083   -1.029555    0.266752
C      -0.234659   -1.565557    1.461676
C       0.859573   -0.490322    1.199153
C       2.257760   -1.036128    0.877643
C       2.292016   -1.764517   -0.442423
C       1.573328   -1.339568   -1.481434
C       0.712265   -0.105512   -1.387236
H       0.359604    2.202947    0.157427
H      -1.163921    1.775797   -0.638476
H      -1.004859    1.607338    1.115609
H      -2.043179   -0.619461    0.529888
H      -1.201204   -1.748391   -0.545642
H      -0.722302   -1.494285    2.437009
H       0.120846   -2.591192    1.331186
H       0.934107    0.243564    2.007667
H       2.978770   -0.204659    0.852112
H       2.589174   -1.692045    1.691842
H       2.934257   -2.636057   -0.535373
H       1.622646   -1.857932   -2.435248
H      -0.051057   -0.103185   -2.175302
H       1.338720    0.779912   -1.579693
