16

O       0.150697    0.306765   -0.973601
C       0.040738    1.263107   -0.265685
C      -1.157091    2.075481    0.253620
C      -0.147677    3.142155    0.768909
C       1.043949    2.202214    0.424293
C      -0.181415    4.563657    0.148356
N      -0.322785    5.484197    1.286501
C      -0.360091    4.747863    2.314957
O      -0.272450    3.400302    2.186298
H      -1.890228    2.394497   -0.492275
H      -1.677691    1.569242    1.072839
H       1.486812    1.751450    1.318221
H       1.841745    2.609380   -0.202889
H       0.734453    4.795972   -0.405736
H      -1.021632    4.694790   -0.542035
H      -0.459370    5.093580    3.337726
