16

O      -0.047440   -0.022907    0.034553
C       0.006769    1.188158    0.032488
C       1.247218    1.952133   -0.000950
C       1.431447    3.283590   -0.011281
C       2.931268    3.420036   -0.023819
C       3.524074    2.310772   -0.956397
C       4.652541    2.168003    0.068432
N       3.438331    2.337933    0.987366
C       2.663153    1.418791   -0.010100
H      -0.916556    1.807985    0.052351
H       0.699885    4.080102    0.008788
H       3.400727    4.400171    0.059708
H       3.559680    2.303752   -2.052781
H       5.138267    1.193898    0.167386
H       5.380379    2.979571    0.153553
H       2.838313    0.349298    0.088930
