17

C      -0.109420    1.514218    0.474866
C      -0.025090    0.087309   -0.125465
C       0.848268   -0.777126    0.792345
O       1.984484   -1.074170    0.547760
C      -1.344667   -0.509786   -0.272383
C      -2.436362   -1.016671   -0.373839
C      -3.753055   -1.615246   -0.519211
C      -4.120975   -2.642334    0.531269
O      -4.492578   -1.301403   -1.426706
H       0.890592    1.951731    0.529973
H      -0.741404    2.146957   -0.151820
H      -0.540401    1.488997    1.479853
H       0.478423    0.134287   -1.097415
H       0.343424   -1.087876    1.734130
H      -4.080995   -2.191747    1.528932
H      -5.123291   -3.024546    0.333194
H      -3.397014   -3.464372    0.522593
