17

N      -0.100651    1.484205    0.014416
C      -0.051338    0.068075   -0.057210
C       0.697556   -0.820366   -1.072146
C      -0.491182   -1.832291   -1.044975
C      -1.222802   -0.936026   -0.042278
C      -0.336386   -0.746892    1.179823
O       0.597256   -1.706354    1.585746
C      -0.955054   -0.042048    2.285760
N      -1.438068    0.447486    3.215333
H       0.738840    1.869789    0.435622
H      -0.209023    1.896900   -0.905921
H       0.787992   -0.319025   -2.039241
H       1.676790   -1.191999   -0.763591
H      -1.013046   -1.899418   -2.001092
H      -0.254209   -2.839460   -0.695452
H      -2.289037   -0.755512    0.021034
H       0.128533   -2.403783    2.059087
