23

C      -0.160912    1.482150   -0.243883
C      -0.002332    0.003482    0.041144
C       1.335898   -0.677011   -0.080930
O       2.418513    0.139876   -0.430550
C       0.685958   -0.546276    1.288286
C       1.290071    0.423120    2.288301
C       0.077418   -1.809411    1.880538
C       1.065101   -2.702335    2.627735
O       0.372561   -3.885962    2.998571
H       0.772794    2.027539   -0.100703
H      -0.467333    1.634144   -1.284359
H      -0.928141    1.931110    0.396309
H      -0.844808   -0.595449   -0.297192
H       1.361254   -1.669752   -0.533146
H       3.200067   -0.188984    0.025341
H       1.755978    1.276626    1.794277
H       0.525100    0.803362    2.975259
H       2.061801   -0.059487    2.899032
H      -0.743025   -1.548943    2.562052
H      -0.368037   -2.414107    1.081962
H       1.923932   -2.930760    1.974393
H       1.459117   -2.184092    3.515143
H       0.970492   -4.436181    3.512537
