20

C      -0.400848    1.379088   -0.193155
C       0.265857    0.042229    0.142044
N       1.005738   -0.530982   -0.982937
C       2.383651   -0.103369   -1.156380
C       0.325201   -1.318331   -1.864297
O      -0.873598   -1.534693   -1.765790
C       1.145156   -1.948787   -2.978545
C       0.496915   -2.245614   -4.253338
O       1.376896   -1.119955   -4.128134
H       0.329981    2.126517   -0.518693
H      -1.135268    1.239831   -0.989878
H      -0.916413    1.775590    0.687199
H       0.969457    0.157798    0.974234
H      -0.494389   -0.684122    0.435444
H       3.036973   -0.535908   -0.387140
H       2.757899   -0.382017   -2.140027
H       2.451070    0.988044   -1.081079
H       2.006489   -2.543180   -2.671281
H       0.873870   -3.061086   -4.867716
H      -0.557051   -2.005446   -4.362721
