18

O       0.042679    1.444156    0.105234
C       0.017924    0.037767    0.088916
C      -1.418497   -0.535846   -0.000016
C      -2.048987   -0.051992   -1.232603
N      -2.504500    0.343714   -2.219081
C      -1.437959   -2.068008    0.061736
C      -1.160299   -2.710457    1.441415
O      -2.446241   -3.354778    1.451731
C      -2.814150   -2.759932    0.190596
H      -0.258596    1.762226   -0.753743
H       0.622515   -0.380099   -0.730095
H       0.461544   -0.290634    1.033746
H      -1.991885   -0.129487    0.843011
H      -0.822323   -2.476499   -0.743142
H      -0.335608   -3.431605    1.477953
H      -1.047784   -2.001779    2.273973
H      -3.670391   -2.079878    0.287767
H      -3.044515   -3.513649   -0.570264
