20

C       0.021103    1.552649   -0.407335
C       0.056505    0.043876   -0.157474
C       0.845408   -0.739486   -1.235972
N       2.251637   -0.404636   -1.299668
C       2.745711    0.414338   -2.281574
C       4.261283    0.439853   -2.390492
O       2.023110    1.069153   -3.011689
C       0.696818   -2.224124   -0.967615
O       1.619447   -2.963525   -0.730211
H       1.027915    1.977040   -0.398142
H      -0.421857    1.783169   -1.380014
H      -0.566091    2.052380    0.369152
H       0.502897   -0.166460    0.822483
H      -0.967062   -0.351994   -0.127747
H       0.395270   -0.514217   -2.212938
H       2.865644   -1.092220   -0.884806
H       4.759682    0.149339   -1.462126
H       4.574880   -0.249668   -3.181523
H       4.577044    1.443376   -2.679063
H      -0.351462   -2.591608   -0.969649
