24

C      -4.329304    2.392284   -0.345632
C      -3.328289    1.829111    0.667886
C      -3.924601    1.777312    2.077936
N      -2.976754    0.467574    0.258949
C      -1.934518    0.197571   -0.732360
C      -1.106132    1.267632   -1.418388
C      -1.745077   -0.188652    0.701759
C      -0.695957    0.454749    1.576617
O      -1.038458    0.180238    2.932637
H      -4.637823    3.403135   -0.060355
H      -3.898322    2.441073   -1.350166
H      -5.218257    1.755401   -0.390217
H      -2.457210    2.504935    0.691462
H      -3.203714    1.365454    2.788405
H      -4.211837    2.780904    2.408534
H      -4.815724    1.141396    2.086087
H      -2.209963   -0.607371   -1.415046
H      -0.822610    2.090181   -0.759753
H      -0.184602    0.826574   -1.814345
H      -1.652443    1.693207   -2.266753
H      -1.890251   -1.234630    0.973351
H       0.283770    0.014686    1.328790
H      -0.622451    1.535319    1.401337
H      -0.356366    0.558197    3.495883
