15

C       0.255796    1.338955   -0.760762
C       0.082893   -0.008385   -0.236038
C      -0.046769   -1.120764    0.204648
C      -0.207208   -2.470202    0.737444
C      -1.488169   -3.122896    0.308558
C      -2.509317   -2.690438   -0.474211
O      -3.430523   -3.648419   -0.556587
N      -2.942138   -4.738109    0.226291
N      -1.829787   -4.399306    0.704231
H       1.200493    1.775604   -0.419134
H       0.266604    1.342239   -1.856084
H      -0.552657    2.001512   -0.433229
H       0.635617   -3.101700    0.426319
H      -0.167939   -2.450094    1.834710
H      -2.691102   -1.770782   -1.003462
