17

O      -0.026633    1.348573   -0.376426
C       0.030739   -0.065996   -0.284024
C      -1.352911   -0.537537    0.133977
C      -2.435725   -0.365894   -0.967997
C      -2.300686   -1.870444   -1.323472
C      -1.566954   -2.089976    0.039094
C      -0.405082   -2.963467    0.065992
N       0.529125   -3.645812    0.070431
H       0.840876    1.668614   -0.640284
H       0.312067   -0.518908   -1.248579
H       0.774193   -0.396030    0.457195
H      -1.591556   -0.105677    1.108538
H      -3.416365   -0.123321   -0.551855
H      -2.200672    0.356868   -1.750351
H      -3.215314   -2.446774   -1.470935
H      -1.635323   -2.047608   -2.170493
H      -2.269508   -2.421323    0.808513
