19

C       0.009592    1.529817   -0.019309
C      -0.003604    0.031133    0.015532
C       0.501477   -0.995374   -0.971843
C       1.161378   -0.877733    0.390153
C       0.591600   -2.053774    1.240166
C      -0.707902   -1.455426    1.819252
C      -1.158442   -0.900191    0.460871
C      -0.587840   -1.997094   -0.554531
O       0.058779   -2.965824    0.261928
H       0.965883    1.906785   -0.397529
H      -0.780943    1.921626   -0.669647
H      -0.141519    1.955707    0.979608
H       1.014523   -0.891588   -1.920086
H       2.169576   -0.499570    0.492397
H       1.279041   -2.572412    1.905411
H      -1.357411   -2.228267    2.237636
H      -0.536002   -0.665268    2.556179
H      -2.185246   -0.563623    0.332489
H      -1.238388   -2.466373   -1.288528
