18

O       0.124643    1.290231   -0.493175
C       0.019793    0.022283    0.121687
C      -1.387259   -0.564229    0.012320
C      -2.347030    0.229371    0.745262
N      -3.068055    0.912967    1.339398
C      -1.966469   -1.182045   -1.252884
C      -0.887379   -1.939278   -2.034251
C      -0.642888   -2.841355   -0.778890
C      -1.720230   -2.050433   -0.024364
H      -0.447865    1.902214   -0.016785
H       0.737791   -0.620177   -0.390448
H       0.308497    0.057714    1.182519
H      -2.902200   -0.813017   -1.653181
H      -1.306968   -2.504842   -2.868032
H      -0.049411   -1.344289   -2.406142
H      -0.954205   -3.872792   -0.954440
H       0.360755   -2.856019   -0.345448
H      -2.431885   -2.461587    0.680776
