14

C       0.023615    1.402976    0.078196
O       1.345179    1.891176    0.057431
C       2.111223    1.211849   -0.903294
C       1.381491    0.408799   -2.031844
O       2.564849   -0.452256   -2.129271
C       2.367252   -0.304068   -0.677747
C       0.845516   -0.528237   -0.897952
O      -0.033903   -0.004774    0.063255
H      -0.443773    1.745787    1.002509
H      -0.520864    1.796333   -0.797397
H       2.969314    1.814704   -1.200246
H       0.926280    0.737043   -2.966018
H       3.061350   -0.806880   -0.005806
H       0.535362   -1.531465   -1.189966
