18

C      -0.124375    1.468148    0.402787
N      -0.246933    0.025656    0.430970
C      -1.155080   -0.642082   -0.313744
O      -1.964225   -0.131581   -1.065699
C      -1.114138   -2.191438   -0.125947
C      -1.223994   -2.862198   -1.502825
O       0.131113   -2.532614    0.505539
C      -2.231717   -2.574537    0.741777
C      -3.117130   -2.930415    1.472738
H       0.857178    1.777913    0.026590
H      -0.898180    1.851816   -0.263415
H      -0.266315    1.895940    1.401290
H       0.387956   -0.537139    0.974846
H      -0.332278   -2.624081   -2.088654
H      -1.297401   -3.946787   -1.388658
H      -2.105416   -2.488026   -2.024622
H      -0.006836   -3.344809    1.003299
H      -3.911837   -3.227052    2.112277
