16

O      -0.044995    1.350853   -0.017510
C       0.009304   -0.031879   -0.042787
C       0.922904   -0.723983   -1.047148
O       0.383029   -2.023204   -1.224819
C      -1.025595   -1.973957   -1.005326
C      -1.244270   -0.845042   -0.018029
C      -0.345599   -0.815631    1.221435
C       0.401238   -1.951646    1.682847
N       1.005562   -2.848057    2.095467
H       0.771050    1.684542    0.372557
H       0.908692   -0.132312   -1.976393
H       1.959292   -0.842067   -0.714758
H      -1.571309   -1.754747   -1.936238
H      -1.331340   -2.959114   -0.641843
H      -2.216845   -0.377026    0.069136
H      -0.728258   -0.185676    2.018296
