22

C      -0.028428    1.539469    0.100274
C       0.042635    0.011135    0.029696
C       0.694683   -0.520901   -1.252330
C       2.179166   -0.121901   -1.442183
C       2.852971   -1.259057   -2.259399
O       4.220753   -1.451112   -1.949165
C       1.989075   -2.477765   -1.976998
N       1.801183   -2.652505   -0.514652
C       0.729958   -2.041858   -1.340891
H       0.969638    1.988952    0.080513
H      -0.592740    1.949789   -0.745143
H      -0.521604    1.869961    1.019711
H       0.601608   -0.379237    0.888977
H      -0.972091   -0.401636    0.108419
H       0.112796   -0.164420   -2.115137
H       2.301791    0.850713   -1.923293
H       2.674428   -0.067529   -0.467537
H       2.825730   -1.035200   -3.331807
H       4.239327   -1.779899   -1.041600
H       2.060934   -3.356716   -2.609107
H       1.560150   -3.621915   -0.325562
H      -0.196356   -2.594578   -1.468790
