13

O      -0.083680    1.363959   -0.078879
C       0.008779   -0.015005   -0.006259
C      -0.467678   -0.729413    1.247841
C      -1.339899   -0.740738    0.003149
O      -2.440632    0.095542   -0.062572
C      -1.468482   -1.985733   -0.729114
N      -1.620427   -2.985710   -1.288400
C       1.110719   -0.597683   -0.747129
N       2.023017   -1.024783   -1.313825
H       0.662838    1.744997    0.399297
H       0.027075   -1.645116    1.548096
H      -0.814336   -0.074730    2.039315
H      -3.163759   -0.313365    0.428353
