22

C       0.052272    1.551371    0.009585
C       0.022371    0.014717   -0.005033
C      -1.438803   -0.473833    0.014059
C       0.723184   -0.610753   -1.228935
C       2.185404   -0.347631   -1.496205
C       1.767941   -1.573032   -0.719204
N       1.757768   -1.607941    0.745512
C       2.202267   -0.395478    1.447310
C       0.756205   -0.618647    1.195650
H       1.073960    1.939225   -0.025381
H      -0.488826    1.959289   -0.851061
H      -0.421816    1.942334    0.916489
H      -1.984310   -0.104775   -0.860768
H      -1.487127   -1.567513    0.007754
H      -1.960708   -0.116903    0.908293
H       0.092270   -0.857935   -2.076949
H       2.531076   -0.518562   -2.510810
H       2.691355    0.475644   -1.008328
H       1.925221   -2.548188   -1.165867
H       2.602604   -0.577300    2.441670
H       2.728546    0.379436    0.902011
H       0.129195   -0.925155    2.031181
