18

C      -0.044705    1.592947    0.022326
C       0.049867    0.084252    0.037251
O      -1.156505   -0.558740   -0.308745
C       1.296052   -0.686425   -0.355887
C       2.643786    0.008095   -0.300891
O       2.708458    0.668237    0.963092
C       1.869050   -0.015156    1.894318
C       0.791895   -0.704488    1.079704
H       0.886869    2.060534    0.344294
H      -0.272616    1.950561   -0.990062
H      -0.855258    1.921389    0.680756
H      -1.361725   -0.321985   -1.220275
H       1.173235   -1.550273   -0.998741
H       3.448600   -0.738034   -0.400007
H       2.796438    0.774783   -1.068903
H       2.438730   -0.767525    2.462452
H       1.497618    0.735197    2.600854
H       0.297046   -1.576722    1.489412
