15

O       0.009619   -0.065357    0.004661
C       0.034836    1.149379    0.010302
N      -1.062762    1.999424    0.028768
C      -0.751846    3.428735    0.030297
C       0.751433    3.398224    0.009322
C       1.162470    2.089469   -0.001829
N       2.524522    2.049638   -0.021404
C       2.986720    3.344157   -0.022168
C       1.907410    4.213720   -0.003233
H      -1.998050    1.630614    0.038960
H      -1.179997    3.932094   -0.847254
H      -1.155541    3.924866    0.923407
H       3.089444    1.217774   -0.032958
H       4.045353    3.550677   -0.036128
H       1.973697    5.290714    0.000473
