21

C       0.037675    1.617213    0.009815
C      -0.122624    0.102719    0.163145
C       0.927270   -0.503170    1.105161
C       0.842789   -2.020624    1.238097
C       1.316829   -2.697148    2.495142
N      -0.088451   -2.713414    2.145586
C      -1.022390   -1.950545    2.961663
C       1.036039   -2.726441   -0.018291
N       1.214804   -3.260804   -1.027975
H       1.021183    1.871189   -0.400579
H      -0.719965    2.028000   -0.663783
H      -0.060918    2.128937    0.973846
H      -1.127230   -0.127052    0.538372
H      -0.044840   -0.379482   -0.818163
H       1.931591   -0.256110    0.738467
H       0.848446   -0.050495    2.098532
H       1.838155   -3.648867    2.446418
H       1.646747   -2.027361    3.289666
H      -0.612619   -1.022930    3.387691
H      -1.905620   -1.703577    2.366101
H      -1.340637   -2.589043    3.791238
