20

C      -0.266260    1.409023    0.049260
C      -0.023727   -0.057863   -0.060829
N      -0.169853   -0.769443   -1.103440
C       0.182400   -2.142111   -0.721481
C       0.562542   -2.068294    0.785648
O       0.394508   -0.655439    1.090070
C      -0.291374   -2.900493    1.700847
C       0.148544   -4.303825    2.045971
C       0.174954   -3.223584    3.095984
H       0.650406    1.922268    0.356589
H      -0.600240    1.798806   -0.911598
H      -1.023078    1.611887    0.813503
H      -0.668370   -2.812164   -0.892610
H       1.008262   -2.505577   -1.341864
H       1.619813   -2.304172    0.954595
H      -1.358864   -2.745803    1.565625
H      -0.610392   -5.074861    2.111708
H       1.097881   -4.650897    1.650766
H       1.140724   -2.838839    3.406208
H      -0.565507   -3.253799    3.887090
