16

C      -0.010982    1.474291    0.012493
N       0.068167    0.014714    0.000955
C       0.193464   -0.658224   -1.198776
C       0.141566   -1.996596   -1.355137
C      -0.069677   -2.870206   -0.208985
O      -0.261257   -4.067728   -0.285031
C       0.009991   -2.171543    1.151485
C      -0.156941   -0.663678    1.201637
O      -0.427079   -0.063172    2.218276
H       0.634297    1.875922   -0.771356
H      -1.037047    1.820765   -0.151647
H       0.319716    1.831952    0.986375
H       0.322406   -0.002077   -2.053281
H       0.216778   -2.436511   -2.340814
H      -0.685565   -2.628266    1.857901
H       1.016623   -2.377396    1.544445
