17

O       0.302303    0.862989   -0.605855
C      -0.054757   -0.404148   -0.139829
C      -0.040949   -0.681853    1.412904
C      -1.417220   -1.410136    1.245030
C      -1.552894   -0.693190   -0.100109
C      -2.592649    0.266147   -0.528275
N      -2.439936   -1.048099   -1.189963
C       1.081293   -1.416299    1.961500
N       1.988173   -2.011470    2.363597
H       1.249318    0.881988   -0.777955
H       0.490016   -1.204149   -0.660694
H      -0.165053    0.268542    1.937851
H      -1.298336   -2.490290    1.132983
H      -2.166852   -1.203920    2.009266
H      -3.501151    0.377264    0.057513
H      -2.262855    1.158017   -1.052477
H      -1.966562   -0.937836   -2.084462
