20

C       0.259940   -1.750406   -0.893385
N      -0.134903   -0.508546   -0.236245
C      -1.567828   -0.383298    0.039203
C      -1.774314    0.561935    1.220708
O      -1.090770   -0.004772    2.333012
C      -2.283134    0.191660   -1.182640
O      -2.711532    1.314942   -1.276025
O      -2.377999   -0.722838   -2.167319
C      -2.988882   -0.258341   -3.379192
H       1.351872   -1.792912   -0.943168
H      -0.099143   -2.658020   -0.376061
H      -0.127331   -1.777351   -1.914350
H       0.326791   -0.450777    0.665786
H      -2.027672   -1.359297    0.278577
H      -1.375385    1.549368    0.958561
H      -2.848361    0.672227    1.419905
H      -1.043138    0.659509    3.025852
H      -4.011456    0.076817   -3.189293
H      -2.419798    0.572993   -3.802450
H      -2.985191   -1.110469   -4.058720
