18

C       0.033546    1.611323   -0.073659
C      -0.009160    0.093262    0.015650
C      -1.382068   -0.534737   -0.068735
C      -1.604879   -1.421106    0.901524
C      -0.433756   -1.563921    1.847739
C       0.636763   -0.677782    1.207679
O       1.490105   -1.409256    0.262350
C       1.020021   -0.674505   -0.807177
N       1.365366   -0.665376   -2.011769
H       1.048849    1.988930    0.079722
H      -0.295078    1.938380   -1.064764
H      -0.625286    2.066066    0.672797
H      -2.073101   -0.279852   -0.863882
H      -2.517064   -1.995875    1.017994
H      -0.683112   -1.234975    2.864769
H      -0.073060   -2.596344    1.929176
H       1.259290   -0.114121    1.904937
H       2.118545   -1.331921   -2.191072
