16

O       0.108163    1.362836   -0.095511
C      -0.000960   -0.028875   -0.026956
C       0.300655   -0.632272    1.353196
O      -0.676035   -0.031072    2.178497
C      -1.898774   -0.040455    1.389417
C      -1.440714   -0.628505    0.033265
C      -1.085775   -2.067001    0.315307
N      -1.646673   -3.112058   -0.103336
O       0.007221   -2.021635    1.170156
H      -0.105700    1.715553    0.777315
H       0.600857   -0.459590   -0.829044
H       1.283226   -0.522235    1.805639
H      -2.651772   -0.652171    1.891849
H      -2.271846    0.983475    1.287890
H      -2.110770   -0.472258   -0.806678
H      -1.185390   -3.944671    0.268836
