21

C      -0.067957    1.515206    0.017323
C       0.016480   -0.007050   -0.008004
C       0.897229   -0.551804   -1.151875
O       1.351611   -1.844052   -0.721305
C       0.928994   -2.052515    0.617097
C       0.759416   -0.643259    1.184754
O      -0.293819   -2.758754    0.677566
C      -1.287184   -2.194562   -0.175021
C      -1.385311   -0.663746   -0.053993
H       0.926482    1.964009    0.115303
H      -0.524431    1.904414   -0.900141
H      -0.676609    1.860850    0.859456
H       0.354643   -0.659526   -2.098731
H       1.766084    0.098055   -1.325100
H       1.663799   -2.686912    1.116344
H       1.733810   -0.169924    1.348133
H       0.192187   -0.636606    2.117596
H      -1.069321   -2.471148   -1.215405
H      -2.230492   -2.670993    0.104941
H      -1.926319   -0.390853    0.859999
H      -1.966498   -0.276814   -0.900160
