11

O       0.104870    1.322170    0.077118
C       0.068134   -0.018821    0.041743
N       0.083989   -0.621338   -1.142190
C       0.046315   -1.938201   -1.118902
F       0.061624   -2.550493   -2.293396
C      -0.007132   -2.687205    0.050096
N      -0.022478   -2.067471    1.233123
C       0.014514   -0.741816    1.243386
H       0.138881    1.629921   -0.839281
H      -0.036897   -3.770450    0.024902
H       0.002569   -0.226423    2.197662
