12

N      -0.064632    1.282638    0.356643
C       0.000687    0.060026    0.019533
N       1.154740   -0.656083   -0.311695
C       1.158111   -1.984096   -0.669827
N       0.110673   -2.716979   -0.741642
N      -1.063193   -2.079067   -0.429055
C      -1.267358   -0.767699   -0.051373
O      -2.367343   -0.334600    0.197192
H       0.856076    1.727161    0.365974
H       2.035074   -0.161286   -0.283994
H       2.119615   -2.423790   -0.903556
H      -1.887552   -2.659634   -0.486585
