21

C       0.016709    1.514690   -0.311961
C       1.267110    0.698211   -0.018661
C       2.115723    0.911950    1.241607
C       1.745124    0.098236    2.501565
C       0.625185    0.712192    3.354091
O      -0.463167    1.255179    2.614606
C      -1.313424    0.321305    2.014627
O      -0.679415   -0.529741    1.100983
C      -0.094371    0.038658   -0.043701
H      -0.292922    2.201836    0.464005
H      -0.163797    1.860931   -1.324275
H       1.867240    0.465728   -0.894167
H       3.143141    0.642227    0.975452
H       2.147890    1.978674    1.496495
H       1.491935   -0.925331    2.216708
H       2.629811    0.038194    3.148519
H       0.253236   -0.025943    4.082269
H       1.018867    1.564970    3.917323
H      -1.751354   -0.355131    2.763232
H      -2.098416    0.916308    1.531057
H      -0.299052   -0.601623   -0.896976
