25

C       0.015918    1.487568    0.017217
C       0.032187   -0.031839    0.013180
O       0.701531   -0.479864    1.172652
C       0.778034   -1.885740    1.269630
C       1.480927   -2.265001    2.574691
C       0.696433   -1.738937    3.785345
C       1.706236   -3.784840    2.613505
C       2.566989   -4.264350    3.776137
O       2.774145   -5.660150    3.607136
H       1.036064    1.881895    0.025574
H      -0.496183    1.866574   -0.872302
H      -0.503166    1.863485    0.903576
H      -0.996855   -0.429973   -0.010530
H       0.541159   -0.410280   -0.890073
H      -0.234790   -2.327281    1.242648
H       1.331498   -2.296386    0.407807
H       2.461340   -1.768239    2.556277
H       1.251550   -1.866836    4.719054
H       0.481634   -0.675439    3.660412
H      -0.258859   -2.268533    3.888980
H       0.741770   -4.307693    2.655389
H       2.196584   -4.110785    1.687770
H       3.524788   -3.717299    3.777100
H       2.070856   -4.054934    4.735704
H       3.284816   -5.980102    4.356335
