19

C       0.070217    1.350656    0.102941
O       0.052572   -0.068027   -0.042071
C       0.584070   -0.550477   -1.177194
N       1.046314    0.214742   -2.078968
C       1.672476   -0.392795   -3.245751
C       1.089377   -1.761010   -3.631904
C       0.849899   -2.630647   -2.419104
C       1.783137   -2.684167   -1.268464
N       0.489840   -1.968356   -1.151398
H       1.092845    1.736418    0.059570
H      -0.510901    1.830514   -0.689626
H      -0.374893    1.551089    1.078629
H       1.571121    0.299670   -4.088077
H       2.753160   -0.481209   -3.065391
H       0.125330   -1.612005   -4.133124
H       1.744275   -2.270272   -4.347827
H       0.241236   -3.514459   -2.599734
H       1.856687   -3.581324   -0.661324
H       2.686192   -2.081465   -1.303401
