16

O      -0.174898    0.095655    0.395045
C      -0.071217    1.260729    0.164139
O      -1.128215    2.096605   -0.034704
C      -0.632520    3.381246   -0.394011
O       0.716046    3.439124    0.008403
C       1.200365    2.103808    0.031028
C       2.171631    1.886279    1.172393
C       3.132068    2.949342    1.543842
N       2.001505    2.612169    2.432625
H      -0.732397    3.505931   -1.482415
H      -1.202001    4.148951    0.135210
H       1.684417    1.842129   -0.924638
H       2.446353    0.840010    1.280454
H       4.113304    2.683156    1.925298
H       3.087460    3.883776    0.991976
H       1.275756    3.315247    2.306511
