18

C       0.260984    0.849927   -0.403577
N      -0.284511   -0.116354    0.526709
C       0.505981   -0.967696    1.001891
O       0.049591   -1.912658    1.863722
C       1.012116   -2.754406    2.432447
C       0.811635   -4.241400    2.383242
C       0.294746   -4.613738    0.995815
O       1.388203   -3.903140    0.346123
C       1.953399   -3.585496    1.610162
H       1.342461    0.738325   -0.585619
H      -0.258083    0.767303   -1.365299
H       0.077322    1.863682   -0.029631
H       1.580099   -1.040301    0.783650
H       1.425058   -2.387144    3.370638
H       0.796680   -4.870526    3.262496
H       0.360959   -5.683838    0.778498
H      -0.684306   -4.220219    0.707997
H       3.033586   -3.601316    1.706319
