15

C       0.018029    1.496004   -0.014125
C       1.474982    1.939880    0.001658
O       2.025547    1.682291   -1.325645
C       2.377901    0.361030   -0.881713
C       1.178363   -0.613250   -0.721138
C       1.193934   -0.426198    0.774816
C       2.237206    0.711670    0.611082
N       0.054307    0.018560   -0.008020
H      -0.527337    1.818589    0.880137
H      -0.497331    1.866338   -0.903664
H       1.679313    2.957360    0.341281
H       3.276333   -0.046406   -1.348629
H       0.954461   -1.482577   -1.329153
H       1.074532   -1.127676    1.591067
H       3.077029    0.851613    1.284458
