23

C      -0.284154    1.472788    0.266020
C      -0.047435   -0.018948    0.040362
C      -1.352587   -0.732422   -0.305664
C       1.122515   -0.335827   -0.923054
O       1.879835   -0.972303    0.120787
C       0.860260   -0.734380    1.104527
C       1.285084   -0.048366    2.427979
C       0.386168   -1.049281    3.200972
C       0.366635   -1.946408    1.935197
H       0.648531    2.004745    0.475008
H      -0.732250    1.925702   -0.625819
H      -0.968637    1.648806    1.103574
H      -1.804219   -0.286446   -1.199216
H      -1.192484   -1.794993   -0.510267
H      -2.082785   -0.651056    0.507472
H       0.887146   -1.028691   -1.741482
H       1.644757    0.536852   -1.336534
H       2.348742   -0.236511    2.601274
H       1.094247    1.020154    2.547977
H       0.793613   -1.483933    4.115700
H      -0.598840   -0.631122    3.426228
H      -0.573218   -2.425773    1.653346
H       1.154031   -2.705470    1.960277
