18

O      -0.026784    1.419178    0.062009
C       0.010963    0.033787    0.010896
C       0.940774   -0.706391    0.967760
C       0.528989   -2.145790    0.556272
N      -0.496091   -1.931260   -0.497256
C      -1.339287   -0.769091    0.048689
C      -2.077782   -0.311836   -1.195626
C      -1.121892   -0.332919   -2.126171
C       0.090502   -0.798075   -1.346926
H       0.857732    1.746583    0.252935
H       1.997000   -0.482648    0.777836
H       0.726214   -0.467882    2.014050
H       1.355283   -2.731396    0.143705
H       0.089644   -2.716118    1.379239
H      -1.883481   -0.942102    0.978856
H      -3.123261   -0.051419   -1.261677
H      -1.156893   -0.091012   -3.177767
H       1.032593   -1.001437   -1.859927
