24

C      -0.594566    1.782525    0.403004
C       0.058231    0.538961   -0.162130
C       1.418008    0.590277   -0.810016
C       1.236111   -0.156285    0.496904
C       1.859507    0.369563    1.752835
C       1.810618   -0.365282    3.059315
C       1.114210   -1.698362    3.237152
N       3.079141   -0.198746    2.342677
C       3.742175   -1.337947    1.727864
H       0.139344    2.495090    0.788896
H      -1.170273    2.298740   -0.373194
H      -1.282528    1.538656    1.220292
H      -0.649492   -0.142658   -0.628001
H       1.598604    0.022382   -1.716337
H       1.952469    1.534991   -0.765906
H       1.220198   -1.236193    0.406082
H       1.855573    1.457812    1.805185
H       1.766230    0.246625    3.961566
H       1.084654   -2.301404    2.328170
H       1.607850   -2.291593    4.015143
H       0.079293   -1.534772    3.556629
H       3.086347   -2.109461    1.300310
H       4.392406   -0.973793    0.925917
H       4.376552   -1.820031    2.479229
