15

O      -0.193180    0.293025    0.666557
C       0.112094    1.087469   -0.181675
C       1.294758    2.031540   -0.053817
O       1.442304    2.703133   -1.286538
C       2.516588    3.637827   -1.310325
C       2.695594    4.092171   -2.690068
C       2.872733    4.463640   -3.816862
C       2.289752    4.769708   -0.396146
C       2.101042    5.672471    0.373075
H      -0.453093    1.203029   -1.131858
H       1.100075    2.732350    0.772700
H       2.193645    1.451204    0.209630
H       3.442292    3.126189   -0.991784
H       3.020583    4.794795   -4.815400
H       1.935703    6.480618    1.042893
