19

O      -0.050226    1.532220    0.016778
C       0.085571    0.128349    0.134106
C      -1.273222   -0.550509    0.048685
O      -1.869578   -0.242836   -1.236184
C      -2.311457   -1.508552   -1.736671
C      -1.098381   -2.264745   -2.309791
C      -0.419070   -2.726637   -0.983457
C      -1.366285   -2.091666    0.057024
O      -2.650466   -2.248170   -0.581688
H      -0.557061    1.684379   -0.789694
H       0.760618   -0.268317   -0.638525
H       0.541423   -0.064016    1.112049
H      -1.918209   -0.136634    0.834789
H      -3.177238   -1.367247   -2.382899
H      -1.414532   -3.110476   -2.925276
H      -0.472798   -1.605705   -2.914457
H      -0.441405   -3.813511   -0.881270
H       0.618369   -2.401976   -0.888461
H      -1.380201   -2.548760    1.045141
