14

O       0.259681    1.078568   -0.696962
C      -0.011508    0.056223    0.237435
C      -1.390026   -0.506564    0.063264
C      -2.286930   -0.462714   -0.956400
C      -3.395233   -1.206273   -0.457239
C      -4.671240   -1.480925   -1.166065
O      -5.591915   -2.112016   -0.717002
N      -3.174934   -1.654329    0.763241
O      -1.910078   -1.207520    1.090428
H      -0.312415    1.826852   -0.495400
H       0.734058   -0.726863    0.057539
H       0.115693    0.382808    1.280023
H      -2.172012    0.011422   -1.916400
H      -4.707646   -1.037976   -2.185559
