22

C      -0.159562    1.502466    0.104234
C       0.116975    0.031793    0.025181
N      -0.716087   -0.944841    0.777876
C       0.756107   -0.892075    1.002043
C       1.310403   -1.782938   -0.113482
O       0.858970   -3.108018   -0.125249
C       0.701358   -0.756024   -1.175458
C      -0.298066   -1.330733   -2.172020
C       1.820057    0.014438   -1.876042
H       0.684233    2.086534   -0.275843
H      -1.043703    1.772686   -0.485042
H      -0.340791    1.813395    1.139311
H      -1.161973   -0.445524    1.546222
H       1.155101   -0.709030    1.993485
H       2.401753   -1.811482   -0.163399
H      -0.072232   -3.060675    0.132820
H      -1.139784   -1.802470   -1.660885
H      -0.694908   -0.544281   -2.824714
H       0.180273   -2.083650   -2.806859
H       2.365650   -0.644583   -2.560095
H       1.425960    0.851116   -2.464154
H       2.542310    0.420936   -1.158552
