18

C      -0.053472    1.510822    0.147007
C       1.491314    1.438378   -0.032782
C       2.105962    1.140744    1.333138
O       1.345249    0.114914    1.976434
C       0.792994   -0.778659    1.021786
C       1.827696   -1.154440   -0.075630
C       1.314728    0.082709   -0.835375
C      -0.047225   -0.006834   -0.078128
H      -0.429752    1.898405    1.098413
H      -0.544420    2.030017   -0.680827
H       2.003015    2.262688   -0.534261
H       3.159034    0.837044    1.235699
H       2.068976    2.017788    1.988739
H       0.300659   -1.572060    1.586089
H       2.877639   -1.232601    0.222225
H       1.536228   -2.071688   -0.596446
H       1.403137    0.161592   -1.919939
H      -0.919631   -0.539978   -0.460320
