18

C       0.042141    1.601891   -0.222145
C       0.048270    0.073719   -0.148211
C      -1.352018   -0.509521    0.126786
C      -1.390930   -1.991598    0.189131
C      -1.645929   -2.912613    1.155862
O      -1.973575   -2.684488    2.444824
N      -1.530280   -4.193308    0.653315
C      -1.210213   -4.007341   -0.589216
O      -1.104297   -2.720551   -0.954940
H       1.044337    1.993751   -0.420449
H      -0.618656    1.957551   -1.020625
H      -0.308406    2.043345    0.717526
H       0.428126   -0.344133   -1.087749
H       0.733671   -0.262486    0.638723
H      -1.729282   -0.134733    1.084872
H      -2.047753   -0.148761   -0.643836
H      -2.097284   -3.548223    2.855694
H      -1.024587   -4.752666   -1.346300
