18

O       0.146331    1.400023    0.036542
C       0.061126    0.010661    0.360272
C      -1.342890   -0.506985    0.101493
C      -2.426519    0.155785    0.942545
O      -2.655864    1.495723    0.551332
N      -1.630174   -0.758727   -1.309860
C      -1.604323   -1.908414   -0.383844
C      -0.523036   -2.913259   -0.605325
O      -0.560107   -4.033094   -0.162032
H       0.001645    1.467236   -0.915503
H       0.804089   -0.561769   -0.205906
H       0.308716   -0.066487    1.423409
H      -3.376653   -0.374298    0.811780
H      -2.154433    0.082055    2.008184
H      -1.790099    1.928024    0.549684
H      -2.589189   -0.500014   -1.531315
H      -2.542412   -2.352455   -0.057850
H       0.322853   -2.553768   -1.230040
