22

O      -0.056973    1.463539    0.035586
C      -0.001652    0.040266   -0.034843
C       0.744720   -0.519007    1.186242
C       0.891192   -2.046687    1.271102
C      -0.447339   -2.806324    1.315850
C      -1.091875   -2.909841   -0.053052
C      -2.544675   -2.673392   -0.280224
N      -1.553978   -1.725929   -0.783653
C      -1.459947   -0.423436   -0.130300
H       0.837601    1.788336    0.178030
H       0.508190   -0.278890   -0.958493
H       1.749526   -0.072934    1.204251
H       0.228458   -0.150446    2.083002
H       1.485455   -2.414602    0.423904
H       1.469294   -2.280138    2.172655
H      -0.280164   -3.823847    1.688663
H      -1.120738   -2.326200    2.034806
H      -0.591764   -3.624556   -0.707695
H      -3.093927   -3.235201   -1.031628
H      -3.138297   -2.376045    0.584089
H      -1.919187   -0.396791    0.871648
H      -2.002256    0.299740   -0.747729
