12

N       0.606816    0.179911   -0.761390
C      -0.169050    0.460238    0.307391
O       0.096732    1.235793    1.204492
C      -1.490217   -0.341247    0.338407
O      -1.710672   -1.120162   -0.803390
C      -1.485563   -1.213246    1.583999
O      -1.712017   -2.396280    1.503165
H       1.468384    0.682893   -0.891734
H       0.251351   -0.436909   -1.473501
H      -2.282525    0.412596    0.473427
H      -1.841800   -2.026112   -0.472670
H      -1.258558   -0.702036    2.534944
