16

N       0.048300    1.273337   -0.091155
C      -0.051661   -0.081716    0.158417
O       0.889797   -0.760178    0.516595
N      -1.324772   -0.647051    0.008970
C      -1.379281   -2.106049    0.041589
C      -0.988106   -2.680047    1.398091
O      -0.671629   -3.827128    1.554432
C      -2.499240    0.092932   -0.039122
N      -3.634031   -0.454798   -0.205774
H       1.006796    1.589226   -0.068881
H      -0.501087    1.669994   -0.837723
H      -2.414204   -2.386623   -0.171916
H      -0.728245   -2.536773   -0.721950
H      -1.063059   -1.961138    2.243864
H      -2.331139    1.161599    0.110208
H      -4.373554    0.243295   -0.188107
