16

C      -0.354848    1.342412    0.073059
N      -0.083286   -0.076002   -0.071362
C      -0.064932   -0.880612    1.148157
C      -1.356738   -0.908252    1.832844
C      -2.414472   -0.918361    2.402517
C       0.165542   -0.711247   -1.260227
O       0.403672   -1.904860   -1.351197
C       0.138852    0.124235   -2.454063
C       0.143217    0.718209   -3.499857
H       0.424361    1.824954    0.677112
H      -0.380172    1.813834   -0.908050
H      -1.319403    1.494636    0.568832
H       0.234762   -1.888934    0.852012
H       0.702549   -0.486596    1.829131
H      -3.350234   -0.945096    2.904252
H       0.146706    1.239690   -4.425967
