16

N      -0.041839    1.288468    0.223578
C      -0.010706    0.060873   -0.062060
C      -1.273666   -0.769711   -0.091732
N      -1.171597   -1.848564   -1.071520
C      -0.017442   -2.682041   -0.783674
C       1.212580   -1.802456   -1.022421
O       1.183761   -0.598714   -0.241948
C       2.456148   -2.505427   -0.687393
N       3.419940   -3.094878   -0.449759
H       0.903904    1.674838    0.253042
H      -1.436696   -1.143386    0.937179
H      -2.101871   -0.105485   -0.340039
H      -2.021770   -2.399471   -1.075856
H       0.012502   -3.070559    0.249953
H       0.017315   -3.531316   -1.471191
H       1.238806   -1.527316   -2.084848
