23

C      -0.037157    1.529216    0.007976
C       0.014271    0.018984   -0.000796
C       0.967279   -0.781454   -0.939165
C       0.732772   -1.910193    0.085062
C       0.648007   -0.812084    1.185923
C      -0.289450   -1.299760    2.300068
C      -1.088397   -2.441514    1.601744
C      -0.800072   -2.187182    0.111115
C      -1.304351   -0.751986   -0.236885
H       0.957535    1.963836    0.155556
H      -0.433707    1.917322   -0.937982
H      -0.685707    1.899270    0.811040
H       0.656421   -0.931854   -1.978426
H       1.994720   -0.406920   -0.910677
H       1.392737   -2.774894    0.171505
H       1.605199   -0.400088    1.512404
H       0.270621   -1.665014    3.166148
H      -0.943828   -0.499658    2.663677
H      -0.705572   -3.422173    1.906987
H      -2.158470   -2.422118    1.831092
H      -1.158215   -2.972350   -0.557714
H      -2.122460   -0.427616    0.415082
H      -1.645102   -0.649683   -1.272292
