18

C      -0.253012    1.342940    0.204277
C       1.179033    0.879008   -0.044341
C       0.048675   -0.095867   -0.048772
O      -0.077192   -1.090754    0.975898
C      -0.455351   -2.088015   -0.001046
C      -1.986135   -2.228881   -0.158669
C      -1.960165   -1.151493   -1.290208
C      -0.415621   -1.037187   -1.149263
H      -0.515500    1.620546    1.219511
H      -0.757243    1.915574   -0.567926
H       1.651061    1.133794   -0.988080
H       1.848869    0.852242    0.808592
H       0.162732   -2.986207    0.069966
H      -2.299362   -3.216761   -0.507557
H      -2.544505   -1.978015    0.745523
H      -2.278019   -1.537291   -2.261313
H      -2.507758   -0.227483   -1.089080
H       0.199667   -1.111357   -2.045409
