17

C       0.062002    1.486737    0.213405
C      -0.051990    0.017123    0.022248
C      -1.096251   -0.801172   -0.288126
C      -0.562063   -2.128529   -0.328075
O      -1.273001   -3.249566   -0.605400
C       0.768636   -2.028510   -0.042260
C       1.813633   -3.083304    0.062578
O       1.486025   -4.185053   -0.798021
O       1.090485   -0.709815    0.169687
H       0.769036    1.931421   -0.496391
H      -0.912544    1.956809    0.065249
H       0.412683    1.734906    1.221783
H      -2.118118   -0.508721   -0.470145
H      -0.632904   -3.976501   -0.647631
H       2.805827   -2.667297   -0.162724
H       1.870750   -3.527842    1.064224
H       1.519601   -3.853803   -1.703259
