23

C      -0.140904    1.538289    0.092745
C       0.018739    0.025206    0.025163
C       0.763826   -0.591938   -1.214867
C       0.497971   -0.134072   -2.629410
C       2.097536   -0.271782   -0.470656
C       1.225707   -0.593867    0.783888
O       1.506918   -0.109285    2.061293
C       0.968579   -2.104124    0.609320
C       0.617173   -2.103226   -0.911943
H       0.774461    2.082337   -0.154445
H      -0.922781    1.874614   -0.596883
H      -0.434316    1.839693    1.103197
H      -0.945835   -0.445610    0.254359
H       0.604861    0.950873   -2.730267
H       1.196433   -0.603258   -3.332283
H      -0.517291   -0.400621   -2.947153
H       2.962519   -0.911138   -0.678056
H       2.388534    0.777049   -0.528188
H       2.241624   -0.615074    2.424741
H       1.855764   -2.704412    0.840790
H       0.148371   -2.450202    1.244851
H      -0.397549   -2.463144   -1.110536
H       1.308866   -2.708227   -1.507028
