18

C      -0.538815    0.886717    0.994315
O      -0.095457   -0.445273    0.857802
C       1.272510   -0.546657    0.539584
C       1.648338   -2.023001    0.557289
N       1.590887   -2.594547    1.890030
C       0.520498   -2.973610    2.618391
N       0.895991   -3.380470    3.817812
C       2.246042   -3.215873    3.772094
N       2.719418   -2.740648    2.631281
H      -0.412354    1.454415    0.059586
H      -1.600964    0.851429    1.246051
H       0.001429    1.413616    1.795204
H       1.477719   -0.131787   -0.461617
H       1.890620    0.004534    1.265839
H       0.966202   -2.576632   -0.094579
H       2.669396   -2.159212    0.197820
H      -0.487167   -2.925873    2.236733
H       2.898947   -3.457908    4.597502
