16

C      -0.214260    1.524777    0.044637
C      -0.011101    0.002782    0.014583
C       0.781015   -0.491893    1.182677
N       1.954632   -0.043680    1.587153
C       2.237301   -0.827293    2.675604
N       1.303267   -1.732165    2.964444
N       0.388015   -1.496539    2.000492
C       3.424755   -0.694723    3.441438
C       4.433592   -0.575159    4.083908
H       0.751364    2.033174    0.088362
H      -0.746401    1.857227   -0.850858
H      -0.794471    1.827175    0.921372
H      -0.977397   -0.514073   -0.010884
H       0.516211   -0.277186   -0.905217
H      -0.453498   -2.049526    1.969269
H       5.324599   -0.469919    4.651884
