16

O       0.057312    1.482425    0.158647
C      -0.029817    0.087021    0.024123
C       1.037448   -0.611321    0.709388
C       1.959830   -1.157072    1.255363
C      -1.337945   -0.651443    0.069441
C      -2.452386   -0.069233   -0.818039
C      -2.117200    1.125557   -1.621290
N      -1.624705   -0.203413   -2.066696
C      -0.494590   -0.701706   -1.203604
H       0.932873    1.744549   -0.150128
H       2.765312   -1.639867    1.751532
H      -1.525627   -1.416447    0.811214
H      -3.452479   -0.489263   -0.781316
H      -2.904035    1.477624   -2.283476
H      -1.434755    1.875867   -1.255713
H       0.123750   -1.488913   -1.616708
