18

C      -0.345489    1.482182   -0.313118
C       0.084835    0.032485   -0.057817
C       0.954374   -0.530252   -1.160568
C       1.063484   -2.031286   -1.405171
C       0.319574   -2.963228   -0.602297
C      -0.256897   -3.762078    0.086017
N       0.397821   -1.146005   -2.344596
C      -0.909476   -1.203903   -2.788621
O      -1.492374   -2.210983   -3.102233
H       0.522361    2.136423   -0.449120
H      -0.967567    1.566011   -1.209889
H      -0.924443    1.867484    0.531019
H       0.657924   -0.019506    0.876468
H      -0.789360   -0.611708    0.079950
H       1.862938    0.040924   -1.355781
H       2.022144   -2.406555   -1.758575
H      -0.783939   -4.471973    0.674663
H      -1.338059   -0.189657   -2.908096
