21

C       0.083812    1.440221   -0.253932
O       0.011350    0.043094   -0.104529
C       0.737863   -0.430996    1.005939
C       0.613734   -1.940243    1.102753
C      -0.690243   -2.600662    0.744678
C       0.507745   -2.752632   -0.164701
C       1.425069   -2.506441    2.232348
C       0.853357   -2.794458    3.556419
O       1.148667   -3.846837    2.633071
H       1.120511    1.781569   -0.402184
H      -0.505146    1.705450   -1.135105
H      -0.327996    1.966577    0.621617
H       1.802110   -0.145962    0.912725
H       0.362809    0.036817    1.934070
H      -0.984914   -3.466149    1.326652
H      -1.493809   -1.956656    0.409003
H       0.498657   -2.211816   -1.102920
H       1.003677   -3.716821   -0.181895
H       2.492716   -2.276453    2.189103
H       1.484733   -2.763530    4.443038
H      -0.206759   -2.613738    3.726044
