17

O       0.065050    0.061813   -0.386947
C      -0.020482    1.187696   -0.009201
C      -1.310925    2.028330    0.218772
C      -0.813796    3.328238    0.783484
C      -0.019695    3.316208    2.074441
C       0.702875    3.201054    0.773250
C       0.868829    4.507164   -0.004433
C      -0.690852    4.691529    0.067024
O       1.098810    1.936928    0.325472
H      -1.811035    2.149362   -0.747376
H      -1.984462    1.449347    0.856989
H       0.054764    4.227210    2.661671
H      -0.066110    2.404225    2.659802
H       1.502364    5.272446    0.452691
H       1.211713    4.327153   -1.024866
H      -1.159339    4.701829   -0.919235
H      -1.057120    5.551959    0.634173
