18

C       0.032261    1.603950   -0.034456
C       0.114146    0.082654   -0.028046
C       0.703170   -0.681401   -1.216874
C       2.228122   -0.788817   -1.108354
N       2.967021    0.089594   -0.242337
C       2.384734    0.173745    1.007412
O       2.740308    0.884741    1.920251
C       1.131493   -0.695731    0.914516
C       1.372728   -1.672657   -0.266211
H       0.995874    2.069929   -0.256178
H      -0.682476    1.937687   -0.794883
H      -0.307090    1.982813    0.934960
H      -0.874292   -0.337211    0.183169
H       0.202673   -0.875759   -2.159253
H       2.764401   -1.197796   -1.955623
H       3.577658    0.820947   -0.570288
H       0.755519   -1.041327    1.873273
H       1.389978   -2.754012   -0.246231
