16

N       0.055701    1.313883    0.564394
C       0.042455    0.136935   -0.124161
O       1.031941   -0.300704   -0.685412
C      -1.287410   -0.590069   -0.143712
C      -1.731539   -1.179908   -1.507517
C      -0.788542   -2.416843   -1.371629
O      -1.848752   -3.393338   -1.620732
C      -2.481556   -2.360810   -0.819002
C      -1.240094   -2.121928    0.093583
H       0.916622    1.834333    0.606659
H      -0.756298    1.678740    1.028742
H      -2.070635   -0.059711    0.408731
H      -2.011110   -0.660643   -2.423451
H       0.201160   -2.592095   -1.778526
H      -3.534145   -2.461084   -0.554914
H      -0.962519   -2.670630    0.992811
