16

N       0.075111    1.356572    0.139725
C       0.022259   -0.024891    0.008277
N      -1.103616   -0.684838   -0.142800
O      -0.742598   -2.034552   -0.160780
C       0.601164   -2.135777   -0.025703
C       1.211401   -3.498998   -0.019142
O       2.347606   -3.558792    0.841048
C       1.152817   -0.897019    0.092504
N       2.492158   -0.491080    0.189832
H       0.829404    1.768211   -0.396731
H      -0.808611    1.796329   -0.085523
H       0.444950   -4.238706    0.250811
H       1.589960   -3.771859   -1.011023
H       2.037723   -3.380817    1.736003
H       3.094125   -1.284256    0.381674
H       2.619865    0.208314    0.913839
