17

O      -0.878204    0.986623    0.495885
C       0.208158    0.843793    0.001711
C       1.298807    1.906910    0.073394
C       1.437730    2.523319    1.460490
C       2.636665    3.469092    1.458637
C       3.895039    2.680508    1.082560
C       3.745884    1.719913   -0.090075
O       4.681276    1.278740   -0.695652
O       2.495660    1.281629   -0.413957
H       0.504178   -0.071568   -0.553651
H       1.020658    2.695550   -0.644074
H       0.500358    3.030337    1.701555
H       1.577986    1.729152    2.204138
H       2.466198    4.276849    0.735915
H       2.768237    3.942220    2.436146
H       4.746573    3.325690    0.855829
H       4.204701    2.052954    1.929045
