19

C      -0.022696    1.523460    0.026961
C      -0.010888    0.014808   -0.041055
C       0.914293   -0.679528   -0.998206
C       0.407956   -1.838516   -1.422167
C      -0.876050   -2.160927   -0.663981
O      -0.542746   -3.026070    0.434555
C       0.129903   -2.214213    1.403418
C      -0.400555   -0.793829    1.213412
C      -1.265466   -0.817093   -0.015459
H       0.941698    1.913686    0.372533
H      -0.225547    1.961575   -0.956781
H      -0.791494    1.883385    0.717841
H       1.883017   -0.271252   -1.266832
H       0.902759   -2.561379   -2.059445
H      -1.655999   -2.660894   -1.240774
H      -0.110134   -2.609148    2.395319
H       1.217953   -2.271029    1.261543
H      -0.700220   -0.231126    2.091172
H      -2.267996   -0.411271   -0.064723
