17

C      -0.009763    1.537884   -0.004846
O       1.375827    1.942925    0.013773
C       2.146200    0.721208    0.027186
C       1.306813   -0.216352   -0.850064
C       0.043401   -0.008190    0.014480
C       0.555319   -0.343224    1.420771
N       1.675534   -1.307895    1.479398
C       1.958767    0.145637    1.433921
H      -0.527344    1.957855    0.866482
H      -0.488844    1.923525   -0.913843
H       3.161491    0.955870   -0.291289
H       1.197794    0.173732   -1.863848
H       1.658711   -1.245261   -0.865465
H      -0.873210   -0.501989   -0.309458
H      -0.101687   -0.232791    2.277115
H       1.774958   -1.622988    2.441455
H       2.396650    0.647311    2.289058
