18

O      -0.062316    1.449765    0.111705
C       0.013881    0.036497   -0.021400
C      -1.392036   -0.497896   -0.003424
C      -2.563863   -0.229850   -0.954519
N      -3.212355   -1.193450    0.043274
C      -1.868410   -1.987815    0.028430
C      -1.709122   -2.518907    1.437353
C      -2.088571   -1.482767    2.189090
C      -2.437595   -0.428323    1.161971
H       0.833336    1.799542    0.121370
H       0.507611   -0.255363   -0.963013
H       0.580954   -0.420227    0.806019
H      -3.007361    0.768858   -0.952290
H      -2.504297   -0.630756   -1.971111
H      -1.722210   -2.641572   -0.833070
H      -1.393976   -3.512332    1.722182
H      -2.166403   -1.390234    3.262725
H      -2.870446    0.525086    1.463972
