22

C       0.013436    1.529866    0.181317
C       0.017417    0.049179   -0.218544
C      -1.365564   -0.567306   -0.131343
C      -1.602147   -2.064553    0.028083
C      -0.459485   -3.055199    0.106927
C      -1.894781   -1.104586    1.167344
O      -1.031113   -1.049386    2.261630
C      -1.401570   -1.933619    3.300251
H       1.011331    1.969475    0.084330
H      -0.668999    2.110891   -0.449424
H      -0.309587    1.644900    1.220343
H       0.393680   -0.056913   -1.244288
H       0.711791   -0.492507    0.428161
H      -2.103798   -0.049410   -0.740913
H      -2.479876   -2.444079   -0.490047
H       0.311851   -2.725075    0.805930
H      -0.818229   -4.032783    0.447403
H       0.011665   -3.201184   -0.871443
H      -2.938158   -0.916191    1.427839
H      -1.391579   -2.981431    2.969511
H      -0.676725   -1.805281    4.107845
H      -2.406681   -1.702196    3.684925
