15

O      -0.075364   -0.079417    0.228503
C      -0.001119    1.072419   -0.115391
C       1.290709    1.871439   -0.041468
C       1.317722    2.786240    1.238351
C       2.318882    1.751742    1.807249
N       2.454277    1.130800    0.461010
C       1.516192    2.609932   -1.350907
O       0.706584    3.357832   -1.837002
H      -0.870944    1.636046   -0.508963
H       1.738864    3.773111    1.041677
H       0.367499    2.901744    1.761577
H       3.257584    2.150342    2.202695
H       1.867289    1.094837    2.558410
H       2.292048    0.126931    0.458803
H       2.508707    2.407891   -1.808776
