17

C      -0.121711    1.530206   -0.127656
C      -0.051381    0.025794    0.017708
N      -1.201712   -0.610017    0.955922
C      -0.354739   -1.878394    0.885155
C       0.718711   -0.781535    1.026562
C      -0.235853   -0.191208    2.117291
N       1.908836   -0.798786    0.160892
C       1.059331   -0.580852   -0.976564
O       1.262996   -0.704427   -2.144046
H       0.876470    1.981541   -0.106261
H      -0.567661    1.770347   -1.098385
H      -0.738613    1.997333    0.643252
H      -0.518521   -2.559986    1.722742
H      -0.427611   -2.391816   -0.077895
H      -0.205986    0.876362    2.325030
H      -0.410149   -0.778621    3.021519
H       2.641052   -1.502477    0.151911
