18

C       0.045652    1.546797   -0.259569
C       0.015198    0.056144   -0.011730
C       1.239354   -0.800718   -0.164438
C       0.647513   -0.595291    1.214734
C       1.359086    0.167221    2.259806
N       0.969925    0.038236    3.511119
O       1.816825    0.847865    4.265669
C       2.693191    1.436908    3.444123
C       2.474111    1.058264    2.161696
H       0.990474    1.997823    0.054047
H      -0.086791    1.761489   -1.325632
H      -0.757114    2.053950    0.286183
H      -0.919004   -0.414824   -0.306537
H       1.152547   -1.783715   -0.613919
H       2.177379   -0.298893   -0.380520
H       0.085653   -1.423938    1.631126
H       3.413080    2.090826    3.912109
H       3.028343    1.350230    1.286225
