16

O       0.006650   -0.063856    0.031642
C      -0.033413    1.132704   -0.000341
N      -1.137015    1.947367   -0.062858
C      -0.839205    3.351011    0.072096
C      -1.147428    3.959251    1.458150
O      -0.004733    3.696592    2.252766
C       1.110392    3.921144    1.405183
C       0.724807    3.311667    0.051574
O       1.081582    1.930156   -0.013263
H      -2.046661    1.549092    0.095399
H      -1.274280    3.941361   -0.739979
H      -1.317152    5.044281    1.357006
H      -2.017090    3.509604    1.943542
H       1.304317    5.000199    1.287099
H       1.987502    3.440070    1.840700
H       1.178665    3.825306   -0.798183
