25

C       0.141238    1.375329   -0.206819
C       0.031538   -0.131850    0.053864
C       0.529192   -0.502319    1.455985
C      -1.406898   -0.601519   -0.169898
O      -1.453045   -2.011737   -0.067772
C      -2.750549   -2.601961   -0.013414
C      -3.481625   -2.533473   -1.355606
C      -2.490265   -4.043366    0.432371
O      -1.632029   -4.718747   -0.467172
H       1.172983    1.718130   -0.082531
H      -0.177863    1.634568   -1.221985
H      -0.481088    1.943430    0.495043
H       0.652615   -0.658255   -0.683692
H      -0.039978    0.034810    2.224778
H       0.414514   -1.573161    1.638605
H       1.584687   -0.240400    1.581086
H      -2.073610   -0.148006    0.584384
H      -1.756883   -0.268206   -1.158735
H      -3.347825   -2.094361    0.762758
H      -3.604997   -1.503281   -1.699677
H      -2.927888   -3.097706   -2.109928
H      -4.479821   -2.972852   -1.260009
H      -2.069420   -4.026624    1.449655
H      -3.430481   -4.603667    0.462814
H      -0.871485   -4.136162   -0.581962
