14

N       0.005082    1.389177    0.155269
C      -0.064083    0.014743    0.057763
C      -1.206641   -0.719257    0.034425
N      -1.150356   -2.106311   -0.010703
C       0.035137   -2.746299   -0.027038
F      -0.074027   -4.069194   -0.064746
C       1.225662   -2.097715   -0.012282
C       1.263158   -0.654661    0.019452
O       2.290453    0.026642    0.004972
H       0.946219    1.706015   -0.053925
H      -0.728990    1.926501   -0.278359
H      -2.201669   -0.295948    0.054733
H      -1.993979   -2.655269   -0.022874
H       2.150159   -2.657325   -0.040446
