17

C       0.191200    1.502773   -0.019604
C       0.079849    0.011207   -0.036101
C      -0.005810   -0.846300   -1.090534
C       0.002105   -0.645707   -2.576418
O       0.944366    0.328938   -2.998542
O      -0.117749   -2.116886   -0.662662
N      -0.110473   -2.132850    0.738046
C      -0.000946   -0.870420    1.091109
N      -0.039564   -0.488301    2.421417
H       1.055037    1.837713    0.569092
H       0.315899    1.887765   -1.033060
H      -0.697235    1.966721    0.424660
H       0.165081   -1.621082   -3.056413
H      -0.970877   -0.275018   -2.917461
H       1.812912    0.045793   -2.692978
H       0.106763   -1.260014    3.058527
H       0.552503    0.299218    2.644289
