17

C      -0.348648    1.388604    0.349081
N      -0.060365   -0.034809    0.269078
C       1.242619   -0.446218   -0.228232
C       0.871268   -0.663437    1.201870
C       1.610061    0.079471    2.284668
O       0.782761    0.173917    3.456731
C       0.589383    1.385577    4.008071
O      -0.069553    1.553749    4.988925
H       0.525431    2.028143    0.553732
H      -0.770844    1.709243   -0.608147
H      -1.099043    1.563912    1.125992
H       1.257536   -1.277049   -0.928428
H       1.978457    0.332393   -0.434458
H       0.557632   -1.658364    1.512741
H       2.508951   -0.479802    2.566571
H       1.922559    1.079196    1.964007
H       1.103817    2.196389    3.454506
