13

C       0.115489    1.399647   -0.068944
N       0.094947   -0.039401   -0.017425
N       0.176709   -0.808005   -1.183771
C       0.127811   -2.013612   -0.728677
N       0.253631   -3.175274   -1.437317
O       0.004175   -2.123070    0.613191
C      -0.023533   -0.796469    1.101824
O      -0.132472   -0.511016    2.261642
H       1.052805    1.757227   -0.506097
H      -0.721673    1.777230   -0.664285
H       0.028064    1.760790    0.956826
H       0.118645   -3.058777   -2.431102
H      -0.243750   -3.962314   -1.046534
