22

C      -0.354777    1.246380    0.028123
O      -0.164725   -0.144145   -0.062297
C       0.785511   -0.504199   -1.043795
C       0.891557   -2.007022   -1.052094
N       0.062673   -2.745419   -2.017058
C       1.529146   -2.803323   -2.139277
C       2.105868   -2.161065   -3.386650
C       2.219666   -4.089884   -1.714273
O       2.004472   -5.167826   -2.614605
H       0.577575    1.771648    0.292754
H      -0.728721    1.671332   -0.917040
H      -1.094656    1.425751    0.812073
H       0.477106   -0.136707   -2.033768
H       1.765989   -0.052954   -0.806854
H       0.976335   -2.416067   -0.045514
H      -0.296125   -3.606716   -1.611521
H       1.536251   -1.278912   -3.681411
H       3.151573   -1.869246   -3.235797
H       2.066927   -2.860841   -4.229928
H       3.295922   -3.904359   -1.566883
H       1.811869   -4.426567   -0.755108
H       2.469822   -4.974123   -3.433856
