16

C      -0.046900    1.425418    0.182649
C       1.272070    0.741356   -0.023622
O       1.656976    0.049687    1.212873
C       0.587952   -0.810571    1.021094
N       0.377233   -1.967731    1.452009
C      -0.725943   -2.615118    0.713245
C      -1.548324   -1.707203   -0.231525
O      -0.736586   -0.798530   -1.011696
C      -0.007690   -0.067919   -0.103463
H      -0.311034    1.825850    1.157925
H      -0.383253    2.006518   -0.672547
H       2.065579    0.984242   -0.716101
H      -0.277545   -3.437425    0.142202
H      -1.418644   -3.073551    1.428502
H      -2.095829   -2.315117   -0.954718
H      -2.272890   -1.117846    0.347507
