17

C      -0.144259    1.494970    0.004211
C       0.024789    0.000934    0.041983
N       0.125243   -0.706705    1.103788
O       0.048322    0.057735    2.270704
C       0.047797   -0.751721   -1.252575
C      -0.204867   -2.227504   -1.267936
N      -1.226535   -1.327598   -1.788078
C       0.918281   -0.225966   -2.349441
O       1.770550    0.614778   -2.213250
H       0.827984    1.973881   -0.145363
H      -0.779140    1.787513   -0.836766
H      -0.577199    1.857107    0.936420
H       0.131499   -0.611720    2.958135
H       0.288425   -2.841800   -2.016300
H      -0.337871   -2.686242   -0.294846
H      -1.951366   -1.192848   -1.085608
H       0.708674   -0.705730   -3.330436
