21

C      -0.124661    1.520140   -0.087745
C       0.184674    0.025881   -0.138440
O       1.322450   -0.222090   -0.987494
C       0.566461   -0.542094    1.230203
C       0.503869   -2.095380    1.323124
C      -0.937945   -2.587224    1.538574
O       0.967494   -2.713402    0.124725
C       1.336097   -2.522364    2.465226
C       2.011214   -2.856002    3.402449
H       0.719030    2.073631    0.335909
H      -0.317508    1.910785   -1.093113
H      -1.012551    1.714099    0.522438
H      -0.686647   -0.513835   -0.535619
H       1.062556   -0.061353   -1.900363
H       1.586052   -0.206025    1.446462
H      -0.080340   -0.121943    2.006006
H      -1.585020   -2.219574    0.736719
H      -0.953794   -3.679084    1.517518
H      -1.329561   -2.247725    2.501302
H       1.468390   -2.051639   -0.374122
H       2.613635   -3.163595    4.221110
