21

C       1.239418    0.843163   -0.976147
C       1.790961   -0.507411   -0.495170
C       3.317910   -0.580113   -0.632003
C       1.373076   -0.743796    0.943381
N      -0.004898   -1.163534    1.204541
C       1.094298   -2.101381    1.533161
C       1.141438   -3.399455    0.749824
C       1.429106   -2.241806    2.935955
N       1.683372   -2.360967    4.058612
H       1.655948    1.670743   -0.389539
H       1.498636    1.017074   -2.025126
H       0.150081    0.874097   -0.882753
H       1.341768   -1.290664   -1.115123
H       3.804375    0.186030   -0.017091
H       3.705265   -1.554375   -0.317671
H       3.623005   -0.413585   -1.669585
H       1.807319   -0.030283    1.644841
H      -0.373687   -0.728491    2.046351
H       0.461244   -4.131591    1.194489
H       0.828961   -3.230179   -0.280862
H       2.150034   -3.822845    0.754725
