18

O      -0.021125    1.363314   -0.564137
C       0.005863    0.184310    0.219813
C      -1.350734   -0.479542    0.251565
N      -1.715268   -1.179673   -0.984059
C      -1.499334   -1.965075    0.231841
C      -0.500871   -3.114486    0.461052
C      -1.558875   -3.823763    1.370778
C      -2.566040   -2.720582    0.986059
O      -3.742223   -2.545885    1.140932
H      -0.305878    1.095982   -1.445846
H       0.753977   -0.531131   -0.152303
H       0.302727    0.490404    1.228316
H      -2.135758    0.075212    0.762981
H      -2.718171   -1.110562   -1.153592
H      -0.271044   -3.664672   -0.453376
H       0.431653   -2.840569    0.956713
H      -1.858439   -4.833044    1.077879
H      -1.319988   -3.827912    2.438075
