16

C       0.000496    1.462874    0.032075
N      -0.099769    0.015208    0.093597
C       0.593498   -0.675120    1.071201
N       1.153835   -0.001498    2.039105
N       1.751203   -0.734074    3.011265
C       1.889404   -2.109913    3.112110
O       2.475667   -2.630772    4.048908
C       1.259966   -2.805799    1.991304
C       0.633163   -2.115467    1.016519
H       1.034195    1.815886   -0.089781
H      -0.604498    1.819724   -0.804034
H      -0.386503    1.896491    0.957484
H      -0.126767   -0.450936   -0.799855
H       2.165327   -0.186898    3.752928
H       1.320424   -3.887453    1.996329
H       0.148353   -2.624774    0.188092
