17

C      -0.031881    1.494153   -0.014270
C       0.059942   -0.017610    0.000852
O       1.132226   -0.591641    0.047189
N      -1.147876   -0.708850   -0.038176
C      -2.437214   -0.134462    0.014115
C      -3.341545   -1.144869    0.053372
C      -2.634994   -2.392366    0.020660
C      -1.295434   -2.110348   -0.039931
N      -0.207382   -2.946738   -0.177961
H       0.983399    1.888328   -0.023070
H      -0.572713    1.848984   -0.896210
H      -0.557384    1.863512    0.871505
H      -2.562804    0.932200    0.027570
H      -4.413340   -1.023301    0.099376
H      -3.065067   -3.381739    0.022043
H      -0.358649   -3.876917    0.180869
H       0.673117   -2.524475    0.084538
