13

O      -0.006283   -0.042865    0.003515
C       0.005636    1.165724    0.009903
N      -1.084981    2.004039    0.027859
C      -0.744083    3.405332    0.031054
C       0.758100    3.366135    0.011955
C       1.199956    2.098067   -0.000354
C       2.528829    1.624148   -0.019648
C       3.654500    1.198380   -0.036119
H      -2.023592    1.643833    0.037816
H      -1.143303    3.937346   -0.845553
H      -1.121083    3.927911    0.923039
H       1.364768    4.261156    0.009023
H       4.645209    0.816530   -0.050655
