18

C      -0.098737    1.629300    0.247378
C      -0.010101    0.121726   -0.063080
C       0.877809   -0.610802    0.962789
C      -1.342820   -0.479942   -0.127701
C      -2.448309   -0.957119   -0.172490
C      -3.764503   -1.579488   -0.184016
C      -3.838560   -2.796190    0.741138
O      -4.801080   -3.074066    1.402841
H       0.901479    2.074045    0.249211
H      -0.707676    2.149766   -0.496324
H      -0.549752    1.793993    1.230742
H       0.457859    0.009877   -1.051212
H       1.882412   -0.176299    0.971667
H       0.456409   -0.522713    1.968859
H       0.963132   -1.673874    0.722812
H      -4.561218   -0.885021    0.102444
H      -4.006638   -1.940652   -1.195950
H      -2.919801   -3.422413    0.743335
