19

C      -0.193449    1.573464    0.062828
C      -0.063493    0.049273    0.073769
C       0.886264   -0.454837    1.174115
C       1.014994   -1.942725    1.171357
O      -0.077355   -2.750265    1.687996
C       1.223694   -2.981814    2.217955
C       1.897620   -3.972552    1.259738
C       1.706958   -2.872203    0.168491
O       2.103177   -2.735774   -0.950548
H       0.776272    2.053663   -0.109547
H      -0.873863    1.906004   -0.726749
H      -0.582633    1.946124    1.017019
H      -1.047734   -0.410087    0.221157
H       0.303491   -0.303242   -0.896909
H       1.882501   -0.016899    1.030997
H       0.530361   -0.132349    2.159935
H       1.378274   -2.839401    3.280575
H       2.962096   -4.151790    1.440063
H       1.374369   -4.920171    1.119760
