17

N      -0.232522    1.274021    0.084897
C       0.033970   -0.044710   -0.048543
O       1.103173   -0.541735   -0.294291
O      -1.143067   -0.749765    0.135729
C      -1.073001   -2.110287    0.016110
N      -2.117505   -2.783855    0.187171
C      -2.023606   -4.231754    0.075656
C      -2.689626   -4.854143    1.306919
O      -4.027283   -4.425152    1.437675
H       0.533626    1.921131    0.038210
H      -1.148257    1.589831    0.350390
H      -0.074214   -2.476747   -0.228952
H      -2.587484   -4.540205   -0.813269
H      -0.988155   -4.593282   -0.028523
H      -2.704142   -5.945073    1.210466
H      -2.093862   -4.604893    2.201121
H      -4.006982   -3.469543    1.297694
