17

N       0.267455    1.147066    0.669838
C      -0.010996   -0.147005    0.182689
C      -1.168147   -0.748391   -0.267749
O      -2.357169   -0.076266   -0.383208
C      -0.878072   -2.108753   -0.558743
C       0.465548   -2.304480   -0.293944
C       1.335726   -3.506251   -0.441941
O       2.147300   -3.744900    0.709277
N       0.974121   -1.112367    0.148936
H      -0.532678    1.508549    1.178184
H       0.456509    1.805308   -0.081989
H      -3.046957   -0.713551   -0.586825
H      -1.560514   -2.852306   -0.945321
H       0.705964   -4.373211   -0.689528
H       2.055966   -3.387422   -1.261281
H       1.551971   -3.807504    1.464554
H       1.899646   -0.984765    0.522299
