23

C      -0.245491    1.517461   -0.113085
C      -0.022855    0.023052   -0.013143
C       1.326865   -0.625463   -0.205127
C       2.602897    0.179360   -0.376285
O       2.813918    1.147848    0.638981
C       2.750152    0.593867    1.950823
C       3.311682    1.635007    2.907040
C       1.307571    0.186082    2.282072
C       0.671896   -0.637699    1.164325
H       0.620657    2.082838    0.234544
H      -0.435677    1.807787   -1.152557
H      -1.117811    1.824186    0.476063
H      -0.850973   -0.559440   -0.411136
H       1.342213   -1.563327   -0.754013
H       3.457954   -0.518461   -0.398935
H       2.604859    0.734270   -1.321137
H       3.386363   -0.308704    1.978831
H       2.715166    2.551804    2.863765
H       3.296086    1.260973    3.935468
H       4.342280    1.885256    2.641665
H       1.308767   -0.395003    3.210478
H       0.723272    1.092327    2.483989
H       0.245776   -1.583279    1.484406
