17

C      -0.028018    1.481350   -0.078612
C      -0.071768   -0.030567    0.182723
N      -1.425574   -0.543162    0.062082
C      -1.821743   -1.073834   -1.040038
C      -1.096811   -1.271844   -2.299046
N      -1.613347   -1.853859   -3.338973
N      -2.869441   -2.285895   -3.232068
N      -3.692795   -2.150988   -2.178973
C      -3.191709   -1.571505   -1.135660
H       0.973412    1.878940    0.114580
H      -0.293369    1.709157   -1.116332
H      -0.740094    1.998285    0.570735
H       0.654802   -0.539805   -0.469501
H       0.254777   -0.218508    1.212468
H      -0.078756   -0.925141   -2.429457
H      -3.265302   -2.711864   -4.052727
H      -3.845932   -1.455371   -0.277378
