15

O       0.105719    1.448919   -0.064609
C       0.081164    0.064191   -0.062716
C       0.052782   -0.679740    1.314245
N      -1.360790   -0.106056    1.458366
C      -1.304831   -0.657423    0.029754
C      -0.545850   -1.874366    0.566313
C      -0.125474   -3.187483    0.099179
O      -1.114620   -3.018728    1.147571
H      -0.533688    1.710663    0.615747
H       0.783243   -0.305090   -0.811175
H       0.774855   -0.651573    2.129889
H      -1.926009   -0.724334    2.045022
H      -2.158449   -0.603359   -0.645428
H      -0.513528   -3.587125   -0.836204
H       0.822813   -3.609106    0.428159
