12

N       0.082332    1.385901    0.188110
C       0.022170    0.016437    0.026751
N      -1.049381   -0.738807   -0.042957
N      -0.681738   -2.097601   -0.087806
C       0.617502   -2.069391   -0.059394
N       1.749236   -2.837591   -0.081431
N       2.851067   -2.040728   -0.023072
N       2.502955   -0.813409    0.038716
N       1.131172   -0.802518    0.019792
H       0.765484    1.843538   -0.402830
H      -0.835322    1.797843    0.076203
H       1.860167   -3.834632   -0.141788
