23

C      -0.228356    1.505073    0.024206
C       0.123354    0.013867    0.132180
C       0.760891   -0.527904   -1.118672
C       2.178808   -0.153753   -1.590567
C       2.416520   -1.632155   -2.048526
C       0.983542   -1.951257   -1.622729
O       0.596623   -3.129076   -1.000268
C      -0.004530   -1.047600   -2.329618
C      -1.477725   -1.377901   -2.203575
H       0.661091    2.106825   -0.191231
H      -0.950293    1.684192   -0.779355
H      -0.663151    1.876192    0.957637
H       0.809858   -0.135280    0.976484
H      -0.777696   -0.559826    0.373003
H       2.232427    0.607785   -2.375574
H       2.839492    0.140977   -0.770811
H       2.669122   -1.799302   -3.101803
H       3.152314   -2.140820   -1.421088
H       0.335708   -3.762720   -1.678436
H       0.275663   -0.649320   -3.306890
H      -1.695800   -1.903414   -1.270936
H      -2.097634   -0.475800   -2.242060
H      -1.797527   -2.027820   -3.026500
