16

O      -0.016268    0.018801    0.249434
C      -0.049280    1.198300    0.030328
C      -1.271852    2.102106   -0.076561
C      -0.791811    3.347941   -0.858810
C       0.697704    3.466734   -0.546339
C       1.603927    4.486451   -1.130131
N       1.256713    4.566604    0.290355
C       1.203508    2.097066   -0.190653
O       2.344725    1.736083   -0.087983
H      -2.118663    1.580246   -0.525960
H      -1.561603    2.376289    0.946540
H      -0.936470    3.189379   -1.933353
H      -1.345201    4.252286   -0.590039
H       2.633717    4.202838   -1.327700
H       1.169105    5.203357   -1.822627
H       0.528226    5.267015    0.422946
