20

C       0.004415    1.517993    0.028252
C       0.086665   -0.010514    0.032628
C       0.689920   -0.555852   -1.269415
N       0.784555   -2.002449   -1.324733
C       1.685994   -2.793883   -0.514389
C       1.334762   -4.209022   -1.011103
O       0.030392   -4.086577   -1.588514
C      -0.238314   -2.765971   -1.833867
O      -1.223614   -2.387369   -2.409150
H       0.996292    1.970333   -0.083924
H      -0.619250    1.877716   -0.797143
H      -0.427868    1.893381    0.960165
H       0.686340   -0.344034    0.888928
H      -0.913134   -0.441547    0.158293
H       0.067318   -0.257644   -2.117613
H       1.691506   -0.135241   -1.426969
H       2.734820   -2.538102   -0.699310
H       1.491456   -2.674950    0.561180
H       2.033567   -4.549991   -1.783270
H       1.295708   -4.951506   -0.212054
