17

O       0.640730    0.824162   -0.536105
C       0.128008   -0.332649    0.049211
C       0.091322   -0.447196    1.610861
C      -1.443727   -0.657914    1.567916
C      -2.250683    0.648769    1.571644
O      -2.049905    0.839104    0.142186
C      -1.424408   -0.455542    0.009337
C      -2.088535   -1.351327   -0.990575
O      -1.635548   -2.420908   -1.315075
H      -0.021418    1.514796   -0.389334
H       0.601097   -1.198680   -0.420237
H       0.655034   -1.295866    2.002746
H       0.410479    0.458299    2.134190
H      -1.867817   -1.534007    2.053655
H      -3.317018    0.532834    1.798102
H      -1.841592    1.477997    2.159587
H      -3.044437   -0.957355   -1.401214
