24

C      -0.401356    1.827537   -0.102600
C      -0.207521    0.310171   -0.037176
C      -1.528605   -0.464567   -0.079100
C      -1.321474   -1.982264    0.003218
N      -2.567522   -2.744567   -0.062171
C      -3.035817   -3.112765   -1.383457
C      -3.231252   -2.990597    1.112987
C      -4.524176   -3.794682    1.048807
O      -2.799127   -2.586332    2.182040
H       0.557096    2.354842   -0.067614
H      -0.910347    2.122391   -1.027120
H      -1.008969    2.183531    0.736466
H       0.433163   -0.013798   -0.868759
H       0.333389    0.049233    0.881721
H      -2.164831   -0.161685    0.760210
H      -2.072835   -0.212043   -0.999429
H      -0.677444   -2.323097   -0.816939
H      -0.833291   -2.231209    0.947692
H      -3.983858   -3.644032   -1.329015
H      -3.184545   -2.225580   -2.012900
H      -2.309397   -3.762835   -1.889086
H      -4.379729   -4.775030    0.584286
H      -4.864836   -3.933070    2.074257
H      -5.303187   -3.269262    0.486767
