9

O      -0.011692   -0.021314   -0.000232
C       0.008732    1.180598    0.008312
C       1.256317    1.985678    0.001488
N       1.327989    3.287071    0.009873
C       2.682192    3.487768   -0.002087
N       3.400749    2.393489   -0.017388
O       2.450066    1.382000   -0.014802
H      -0.898972    1.812877    0.021911
H       3.145883    4.463048    0.000068
