18

C       0.069266    1.543725    0.017490
C       0.009795    0.005195    0.017188
C       0.734309   -0.494622    1.258444
O       1.747523   -1.142750    1.250218
C      -1.441416   -0.546777   -0.001619
C      -2.252255   -0.068564   -1.219931
C      -1.412509   -2.068009   -0.021889
O      -1.916044   -2.777511    0.808661
H       1.107155    1.885978    0.068807
H      -0.371802    1.958947   -0.891234
H      -0.467612    1.961027    0.876678
H       0.559910   -0.383625   -0.847914
H       0.251689   -0.191178    2.217831
H      -1.956011   -0.252773    0.920859
H      -1.763836   -0.354398   -2.158188
H      -3.252566   -0.511625   -1.211066
H      -2.371007    1.017075   -1.217396
H      -0.885481   -2.499433   -0.905949
