22

C       0.040437    1.649694    0.007849
C       0.046747    0.118039   -0.011074
C       1.209791   -0.642539   -0.749631
C       2.171658   -0.185058    0.386697
C       0.865279   -0.642431    1.099287
C       0.900204   -1.878298    0.150564
N      -1.272005   -0.473160   -0.260339
C      -2.516693    0.233024   -0.008762
C      -2.077031   -0.069712   -1.401145
H       1.040838    2.079741   -0.008543
H      -0.488713    2.057871   -0.859515
H      -0.459371    2.026334    0.906379
H       1.407229   -0.638164   -1.824030
H       3.038539   -0.830292    0.546110
H       2.463592    0.862696    0.443648
H       0.661112   -0.635350    2.172151
H      -0.039011   -2.395532   -0.020838
H       1.735889   -2.564896    0.306121
H      -3.298280   -0.354725    0.466671
H      -2.492186    1.276185    0.296087
H      -1.752798    0.773945   -2.008614
H      -2.529887   -0.880151   -1.967293
