19

O       0.037303    1.482094   -0.110070
C       0.058583    0.072725    0.077286
C      -1.340430   -0.527305    0.091859
C      -2.080537   -0.578731   -1.267825
O      -1.306883   -1.402696   -2.150092
C      -2.185971   -2.044413   -1.209906
C      -1.481982   -2.077445    0.131013
C      -0.541870   -3.121313    0.655545
C      -1.888285   -2.908499    1.311264
H      -0.218336    1.648541   -1.022728
H       0.660125   -0.430496   -0.691235
H       0.547569   -0.093081    1.043617
H      -1.952820   -0.043702    0.859687
H      -2.739326    0.155066   -1.717825
H      -2.932683   -2.720522   -1.611343
H      -0.390493   -4.018316    0.064228
H       0.340802   -2.790110    1.192609
H      -1.916255   -2.432057    2.286036
H      -2.654094   -3.664002    1.165018
