20

C      -0.039014    1.377400   -0.047642
O       0.053101   -0.027666   -0.039778
C       0.595223   -0.542022    1.158011
C       0.630785   -2.068459    1.011540
N       1.363982   -2.536612   -0.160819
C       1.226077   -2.733192    2.271548
N       0.531454   -2.290876    3.484360
C       1.237239   -4.205919    2.129652
N       1.210999   -5.361684    2.123912
H       0.949700    1.851435    0.056886
H      -0.472496    1.671549   -1.006541
H      -0.683736    1.748528    0.763997
H       1.619789   -0.156759    1.317622
H      -0.006516   -0.241766    2.026508
H      -0.405158   -2.415285    0.900942
H       0.943165   -2.118389   -0.985102
H       2.318981   -2.184324   -0.130594
H       2.271947   -2.409054    2.358533
H      -0.416104   -2.660056    3.486192
H       0.987541   -2.680756    4.303666
