18

C       0.154723    1.522548    0.121215
C       0.021705   -0.008956   -0.019834
N      -1.335062   -0.550637    0.069705
C      -1.975625   -0.405975    1.369369
C      -3.236164   -1.290865    1.411026
C      -3.925103   -1.204193    2.695566
N      -4.452278   -1.120492    3.720205
C       0.611023   -0.446176   -1.297529
N       1.071057   -0.757726   -2.310140
H       1.200992    1.829488    0.040496
H      -0.412592    2.031076   -0.664026
H      -0.223560    1.846050    1.094203
H       0.606117   -0.484910    0.778626
H      -1.911984   -0.149004   -0.663519
H      -1.274244   -0.750504    2.137257
H      -2.252958    0.627227    1.631412
H      -3.933203   -0.989994    0.619733
H      -2.958112   -2.330235    1.211001
