21

C       0.226326    1.220122   -0.548257
C      -0.044643    0.042499    0.394608
C      -1.410717   -0.615158    0.160463
C      -2.500132    0.042843    1.007953
C      -1.983270   -1.094654   -1.164818
C      -1.015857   -1.896052   -2.084824
O       0.295076   -1.941339   -1.509653
C      -0.714269   -2.834430   -1.010580
C      -1.681504   -2.089982   -0.035672
H       1.163733    1.721368   -0.286914
H       0.307051    0.874711   -1.582748
H      -0.572441    1.968930   -0.504351
H       0.758371   -0.684742    0.303309
H      -0.031597    0.403393    1.431749
H      -2.545081    1.119017    0.808919
H      -3.490294   -0.377255    0.806767
H      -2.286519   -0.090272    2.074036
H      -2.957690   -0.769949   -1.509564
H      -1.098357   -2.024271   -3.157623
H      -0.489238   -3.894147   -1.016227
H      -2.396754   -2.631391    0.572388
