12

C      -0.075610    1.446458   -0.001815
C       0.022988   -0.051953    0.049995
O       0.123567   -0.698333    1.064376
C       0.014106   -0.842336   -1.293640
O       0.169778   -2.203853   -1.055322
C      -1.235955   -0.545245   -2.023509
N      -2.213212   -0.286053   -2.582998
H       0.733275    1.856208   -0.616963
H      -1.017593    1.742133   -0.475216
H      -0.019575    1.857169    1.006282
H       0.847263   -0.460923   -1.905549
H       0.127916   -2.294645   -0.086550
