18

C      -0.089031    1.446211    0.147619
C      -0.032393   -0.007212    0.110926
C       0.005874   -1.210548    0.092251
C       0.044830   -2.658949    0.047692
N       0.309424   -3.365542    1.350387
C      -0.834914   -4.283876    1.131413
C      -2.116345   -3.752025    1.796244
O      -2.400320   -2.914926    0.641830
C      -1.294323   -3.452559   -0.088118
H       0.536868    1.893011   -0.632878
H      -1.113243    1.806479    0.000698
H       0.260496    1.829316    1.112809
H       0.729798   -2.990813   -0.746436
H       1.210079   -3.829381    1.366664
H      -0.629884   -5.354769    1.141458
H      -2.911728   -4.493320    1.946226
H      -1.958376   -3.168585    2.708318
H      -1.571261   -3.808224   -1.082939
