18

O       0.080575    1.424663   -0.154022
C       0.029155    0.018368   -0.030193
C      -1.399231   -0.443003    0.087617
C      -2.436068    0.388876    0.072592
C      -3.860491   -0.060070    0.189191
C      -4.074628   -1.559320    0.330110
O      -5.186998   -2.043436    0.432904
N      -2.953182   -2.338030    0.335621
C      -1.565999   -1.930754    0.224650
H       1.002478    1.685978   -0.225785
H       0.496035   -0.477118   -0.900657
H       0.592108   -0.325980    0.856191
H      -2.252027    1.452964   -0.029108
H      -4.353091    0.413323    1.048739
H      -4.447802    0.264510   -0.679866
H      -3.147984   -3.324200    0.431657
H      -1.100458   -2.431593   -0.640185
H      -1.004802   -2.281587    1.106380
