23

C       0.066000    1.559102    0.049732
C       0.004247    0.029728   -0.033160
C      -1.420138   -0.546813   -0.049228
C      -2.208845   -0.170243   -1.314297
O      -3.530108   -0.690717   -1.293822
C      -3.546193   -2.105701   -1.238450
C      -2.857654   -2.617408    0.028527
C      -1.422316   -2.076889    0.113399
O      -0.604413   -2.614642   -0.927255
H       1.102311    1.902431    0.128014
H      -0.368302    2.037592   -0.833566
H      -0.474188    1.932531    0.927323
H       0.543630   -0.322097   -0.918920
H       0.535633   -0.395991    0.828125
H      -1.973190   -0.142302    0.810155
H      -2.319710    0.913553   -1.399679
H      -1.669357   -0.532281   -2.203889
H      -4.598452   -2.403611   -1.263395
H      -3.048556   -2.527626   -2.126104
H      -3.420879   -2.287389    0.909493
H      -2.851377   -3.715761    0.041013
H      -0.988107   -2.329612    1.094233
H      -0.612664   -3.573415   -0.847382
