15

C       0.425212    1.240580   -0.114194
C      -0.278940   -0.047319    0.194465
N      -0.767328   -0.485946    1.265133
O      -0.435701   -0.806995   -0.970077
C       0.055610   -2.058666   -1.030329
O       0.796683   -2.570583   -0.236088
C      -0.430524   -2.762545   -2.320085
N       0.075568   -4.015279   -2.388877
O      -1.157210   -2.234589   -3.130408
H       0.442194    1.896802    0.757445
H       1.453854    1.036230   -0.430071
H      -0.073527    1.749921   -0.944228
H      -0.622614    0.177663    2.025069
H       0.660952   -4.354210   -1.643410
H      -0.169514   -4.606286   -3.164686
