23

C      -0.531822    0.884579    0.041055
C       0.008422   -0.531325    0.263504
C       1.127099   -0.647198    1.320919
C       0.597462   -0.330330    2.749342
C       0.420624   -1.681647    3.389398
C       0.971399   -2.654595    2.667023
C       1.623376   -2.128885    1.414267
O       2.188791    0.277503    1.073352
C       2.876922    0.136520   -0.149400
H       0.270834    1.576002   -0.228797
H      -1.272692    0.890327   -0.764392
H      -1.019123    1.284063    0.935273
H      -0.802216   -1.203145    0.571673
H       0.378309   -0.931478   -0.688513
H       1.343414    0.274456    3.279631
H      -0.326260    0.257198    2.734488
H      -0.080218   -1.813810    4.342271
H       0.994197   -3.704440    2.938636
H       1.369164   -2.713928    0.522273
H       2.717428   -2.154218    1.507364
H       3.291523   -0.872768   -0.283876
H       2.249052    0.368836   -1.020912
H       3.705873    0.848867   -0.124522
