15

O       0.017330    0.042395    0.098061
C      -0.011518    1.234893    0.102317
C      -1.099972    2.303356   -0.010433
C      -1.077495    3.217301    1.270396
N      -0.012351    2.724993    2.202503
C       0.995775    3.267578    1.235547
C      -0.074831    4.124442    0.504417
N      -0.073330    3.217616   -0.714530
C       1.019479    2.354754   -0.046059
H      -2.054633    2.101770   -0.495259
H      -2.029640    3.505975    1.712039
H      -0.012862    3.319327    3.029624
H       1.947111    3.602409    1.645195
H      -0.102927    5.208729    0.397394
H       1.965963    2.199272   -0.562841
