14

N      -0.068370    1.208631    0.375737
C       0.001429    0.023551   -0.030259
O       1.132348   -0.623068   -0.455878
C       0.825538   -1.937778   -0.928407
C      -0.650999   -2.115191   -0.616941
C      -1.085174   -2.001485    0.808559
C      -0.116293   -2.073349    1.872067
N       0.652050   -2.160771    2.731670
N      -1.146358   -0.832232   -0.119273
H       0.850635    1.649319    0.353682
H       1.002733   -1.988039   -2.007510
H       1.477092   -2.655283   -0.421152
H      -1.279353   -2.654703   -1.317411
H      -2.070102   -2.365880    1.082724
