20

C       0.007547    1.496273    0.033869
C       0.003888   -0.000745   -0.009571
C      -0.073870   -0.766372   -1.103811
C       0.061765   -2.245176   -0.853114
C       1.418822   -2.397448   -0.094470
N       0.722746   -2.162666    1.200096
C      -0.569249   -2.644810    0.541876
C      -1.348085   -1.577810    1.303132
C       0.000954   -0.795986    1.278281
H       0.926765    1.877704    0.496810
H      -0.070668    1.925050   -0.969260
H      -0.825438    1.884316    0.634789
H      -0.119181   -0.370348   -2.113425
H      -0.148793   -2.873911   -1.720060
H       1.793114   -3.426782   -0.081470
H       2.225232   -1.708034   -0.358981
H      -0.827290   -3.702552    0.645529
H      -2.217322   -1.100340    0.848417
H      -1.585078   -1.944039    2.305128
H       0.289407   -0.216847    2.157285
