19

C       0.072961    1.456987   -0.371382
C       0.131230   -0.021301   -0.092825
O       1.436572   -0.596319    0.111962
C       0.543215   -0.568777    1.200169
C       0.817319    0.100895    2.562816
N       0.350569   -1.155741    3.162658
C      -0.109919   -1.406059    4.499787
C       0.031492   -1.776330    1.957791
N      -0.494735   -2.864624    1.584166
H       0.749362    2.008356    0.287061
H       0.360720    1.662603   -1.407475
H      -0.945391    1.833145   -0.225489
H      -0.523980   -0.651145   -0.695426
H       1.867447    0.337870    2.765108
H       0.188940    0.972001    2.792860
H      -0.934359   -0.737534    4.789670
H      -0.468995   -2.437354    4.563130
H       0.701399   -1.286214    5.226829
H      -0.764145   -3.456548    2.371590
