17

O      -0.492820    1.229693    0.008612
C      -0.432756   -0.133722   -0.368346
C      -0.963491   -0.941917    0.822025
C      -0.950990   -2.376973    0.577788
C      -0.927856   -3.559437    0.351412
C      -0.920932   -4.990064    0.084992
O      -1.850330   -5.368074   -0.951153
C      -3.136051   -5.525138   -0.575407
O      -4.001657   -5.798543   -1.349793
H      -0.191088    1.763127   -0.732187
H      -1.049410   -0.342221   -1.254863
H       0.595680   -0.451429   -0.596013
H      -0.355076   -0.704273    1.703082
H      -1.981373   -0.602585    1.048244
H       0.054534   -5.319954   -0.281721
H      -1.137501   -5.556627    1.000343
H      -3.288987   -5.385563    0.512455
