17

C       0.023871   -3.778922   -0.038291
C       0.035860   -2.571005   -0.012767
C       0.048389   -1.211672    0.015223
C       0.058655    0.000568    0.039604
C       0.064051    1.430184    0.063826
C       0.487658    2.249885    1.274145
C       1.611064    1.544835    2.042557
C       2.481828    1.563605    0.740823
C       1.333376    2.268113    0.009851
H       0.012580   -4.840050   -0.061332
H      -0.759228    1.887862   -0.480289
H      -0.180422    3.006264    1.668872
H       2.034673    2.170160    2.830747
H       1.364177    0.564761    2.458888
H       3.363634    2.198811    0.844037
H       2.785376    0.595398    0.334299
H       1.432998    3.041039   -0.743083
