19

C      -0.032015    1.541965   -0.138459
C       0.057633    0.028325   -0.046327
O       0.790773   -0.444649   -1.181476
C       0.666794   -1.815157   -1.302881
O       1.116944   -2.548679   -0.153320
C       0.994622   -2.027160    1.095210
O       1.166459   -2.736744    2.047683
C       0.743618   -0.522507    1.216399
C       2.092377    0.153120    1.536133
H       0.961726    1.991194   -0.202544
H      -0.594630    1.829112   -1.030381
H      -0.543325    1.947868    0.739647
H      -0.961256   -0.392588   -0.097805
H      -0.381185   -2.106495   -1.480366
H       1.296432   -2.140496   -2.132914
H       0.077045   -0.402229    2.076372
H       2.759842    0.115065    0.670668
H       1.948121    1.199457    1.816002
H       2.573196   -0.361035    2.370962
