20

C       0.093501    1.625574   -0.043237
C      -0.019657    0.095628    0.011581
C       0.670946   -0.516411   -1.216392
O       0.319784   -1.869044   -1.532023
C       0.595961   -2.911166   -0.682648
N       1.168651   -3.960664   -1.099365
C       0.043453   -2.846735    0.724358
C       0.602093   -1.747223    1.602248
C       0.555024   -0.452770    1.300404
H       1.143015    1.942134   -0.047996
H      -0.385021    2.030550   -0.939854
H      -0.384657    2.079698    0.829664
H      -1.083710   -0.177439   -0.054262
H       0.381276    0.037896   -2.114117
H       1.761180   -0.439148   -1.104180
H       1.439828   -3.832905   -2.077560
H      -1.046531   -2.721639    0.639571
H       0.225295   -3.823809    1.171395
H       1.042125   -2.061231    2.544324
H       0.961463    0.271518    2.003029
