20

C      -0.137756    1.569938    0.089692
C       0.067958    0.060840    0.043890
C       1.123777   -0.541834   -0.949053
C       1.799302   -1.264215    0.226313
C       2.325134   -2.661895    0.187768
O       3.552994   -2.664002   -0.535339
C       2.263697   -0.247959    1.231305
C       0.807119   -0.627129    1.205453
H       0.804247    2.101269    0.259822
H      -0.559144    1.936756   -0.852988
H      -0.827107    1.849621    0.894312
H      -0.897436   -0.429535   -0.117946
H       0.677617   -1.221772   -1.679328
H       1.753974    0.176041   -1.484088
H       2.468208   -3.028208    1.218157
H       1.588673   -3.325352   -0.295336
H       3.826049   -3.578787   -0.654139
H       2.827510   -0.649885    2.067511
H       2.597080    0.734935    0.907878
H       0.328840   -1.074834    2.070133
