19

C      -0.212739    1.556901    0.025245
C       0.042546    0.053862   -0.030103
C       0.887982   -0.505408   -1.218196
C       1.219435   -1.921495   -0.679681
C       1.945872   -1.395460    0.581734
C       2.888255   -0.374807   -0.057047
C       2.268707    0.141731   -1.123416
C       0.845087   -0.485212    1.177589
O       0.658357   -0.224066    2.336558
H       0.722038    2.119139   -0.061036
H      -0.882085    1.876325   -0.779802
H      -0.673236    1.820016    0.981751
H      -0.923762   -0.469646   -0.008302
H       0.392987   -0.451362   -2.188307
H       0.329665   -2.521121   -0.459076
H       1.889827   -2.481081   -1.336325
H       2.378113   -2.099741    1.289292
H       3.833614   -0.074013    0.374639
H       2.623249    0.941284   -1.760901
