20

C      -0.241236    1.410878    0.022308
C       0.103407   -0.059963   -0.013045
O       0.482745   -0.660821    0.970573
C      -0.030689   -0.821070   -1.335005
O       0.388546   -2.146544   -1.161486
C      -1.476767   -0.783044   -1.876849
C      -1.599458   -1.508581   -3.197944
C      -2.661575   -1.138991   -4.162685
N      -1.248669   -0.829409   -4.458647
H       0.091695    1.924402   -0.884354
H      -1.329415    1.529349    0.083540
H       0.206063    1.871354    0.904176
H       0.624005   -0.313232   -2.065767
H       0.622998   -2.215533   -0.220831
H      -2.130753   -1.254808   -1.132184
H      -1.808870    0.256258   -1.998923
H      -1.267583   -2.542451   -3.164025
H      -3.108827   -1.894285   -4.802512
H      -3.328989   -0.322304   -3.896762
H      -1.077366    0.158537   -4.280866
