18

N      -0.227141    1.498799    0.004459
C      -0.048814    0.063128   -0.076961
C      -1.367354   -0.678005    0.045949
N      -2.142746   -0.635815   -1.211891
C      -1.381269   -1.849692   -0.854580
C      -0.057130   -1.947101   -1.588834
C       0.593637   -0.542965   -1.402160
C       0.394666    0.334898   -2.551593
N       0.286972    1.050931   -3.453181
H       0.659417    1.983805   -0.093320
H      -0.816320    1.808592   -0.764326
H       0.596168   -0.244932    0.754875
H      -1.889886   -0.660417    0.995988
H      -3.129339   -0.775283   -1.012470
H      -1.921238   -2.756574   -0.603136
H       0.570605   -2.707718   -1.112888
H      -0.167680   -2.213785   -2.642939
H       1.675959   -0.637830   -1.270645
