21

C      -0.272726    1.532418   -0.022566
C       0.056537    0.041637   -0.036151
O       0.761246   -0.334866   -1.231671
C       2.058899   -0.811621   -0.872425
C       2.632430   -1.608066   -2.017227
C       2.907245    0.351637   -0.250908
C       2.419007   -0.104473    1.124792
C       0.937644   -0.458527    1.102076
C       1.929238   -1.429592    0.552190
H       0.630309    2.144417    0.041854
H      -0.815878    1.808837   -0.930843
H      -0.907160    1.768630    0.839031
H      -0.889140   -0.521082   -0.026923
H       2.727193   -0.980706   -2.909056
H       3.622191   -1.996318   -1.760912
H       1.977248   -2.449999   -2.261288
H       3.980318    0.167370   -0.364150
H       2.674356    1.361360   -0.601719
H       2.925555    0.065496    2.067733
H       0.479790   -0.655228    2.065051
H       2.083634   -2.453847    0.864344
