21

C      -0.150186    1.593043   -0.113118
C      -0.155868    0.067166   -0.209343
C       0.808448   -0.494988   -1.280626
C       2.199414   -0.120630   -1.010777
C       3.348182    0.127712   -0.751835
C       0.716561   -2.021772   -1.372810
O       1.094443   -2.684201   -0.197882
C      -0.416961   -2.658653   -2.110391
C       0.989696   -2.711228   -2.683952
H       0.844367    1.969174    0.144499
H      -0.445336    2.054079   -1.062762
H      -0.850563    1.936590    0.654186
H       0.107488   -0.380208    0.753839
H      -1.162167   -0.290503   -0.455668
H       0.521924   -0.081096   -2.257165
H       4.359991    0.375785   -0.545023
H       2.021406   -2.464445   -0.037667
H      -0.818080   -3.570899   -1.684685
H      -1.148901   -2.019990   -2.593441
H       1.216412   -2.109543   -3.557732
H       1.508306   -3.661698   -2.633975
