13

N      -0.218313   -1.207267   -0.203755
C      -0.123758   -0.058996   -0.120339
C      -0.017611    1.388891   -0.013308
C      -0.282975    1.998819    1.432787
N       1.104015    2.498056    1.339155
N       2.107223    3.207873    1.870953
N       3.063529    3.133850    0.970589
C       2.676507    2.399107   -0.120143
C       1.388190    1.988979    0.133055
H      -0.624750    1.860914   -0.789743
H      -1.036816    2.786151    1.470113
H      -0.435798    1.266080    2.225389
H       3.340250    2.236895   -0.951415
