14

N      -0.021441    1.302497    0.153285
C       0.009642   -0.073294    0.058966
N      -1.116078   -0.799312    0.038141
N      -0.588890   -2.065600    0.012246
C      -1.010604   -3.380661   -0.019982
C       0.124312   -4.136070   -0.040527
N       1.227490   -3.277951   -0.023012
C       0.763797   -1.998186    0.010683
N       1.203070   -0.749057    0.038312
H       0.799672    1.743154   -0.234075
H      -0.884213    1.710406   -0.175884
H      -2.047165   -3.665882   -0.024517
H       0.244267   -5.204527   -0.065477
H       2.193758   -3.549278   -0.022775
