16

O       0.193101    1.330431   -0.239394
C       0.035731   -0.041191   -0.033849
C       0.214452   -0.942135   -1.300128
N      -1.155099   -1.512060   -1.135223
C      -1.387945   -0.643933    0.061837
C      -1.346398   -1.481264    1.317467
C      -0.167000   -1.413420    1.954112
C       0.736081   -0.479238    1.254755
O       1.801343   -0.027699    1.618535
H       1.010308    1.573112    0.221729
H       0.338775   -0.307449   -2.182276
H       1.008350   -1.695461   -1.277457
H      -1.764937   -1.272736   -1.908852
H      -2.233061    0.046977    0.004120
H      -2.177862   -2.114816    1.608012
H       0.115231   -1.934258    2.860278
