19

C       0.014269    1.542732    0.055110
C      -0.054982    0.016791   -0.039225
C       0.727709   -0.534070   -1.229364
N       0.608853   -1.983444   -1.311190
C       1.301530   -2.629611   -2.328162
C       1.903847   -2.125213   -3.444533
O       2.399504   -3.132642   -4.201169
N       2.141237   -4.335604   -3.578217
C       1.491452   -4.036829   -2.481236
H       1.048027    1.889496    0.159438
H      -0.405569    2.013803   -0.840140
H      -0.548322    1.909358    0.918312
H       0.339811   -0.425910    0.885869
H      -1.097355   -0.311932   -0.121050
H       0.325337   -0.112058   -2.160012
H       1.782588   -0.210691   -1.169098
H       0.719504   -2.434886   -0.412843
H       2.049011   -1.130503   -3.830327
H       1.171122   -4.830554   -1.820443
