19

C       0.065567    1.548881   -0.116173
C       0.032613    0.025389    0.008531
C      -1.402651   -0.512141   -0.047717
N       0.928670   -0.524641   -1.067549
C       1.612993   -1.425004   -0.485433
C       3.041456   -1.157912   -0.068175
C       2.266472   -0.914890    1.282057
C       0.772451   -0.524860    1.251915
N       1.192908   -1.876849    0.888321
H       1.095298    1.913170   -0.146476
H      -0.439026    1.871535   -1.031050
H      -0.442847    2.007748    0.739324
H      -1.839009   -0.284179   -1.024522
H      -1.418780   -1.595521    0.094590
H      -2.029928   -0.050086    0.722138
H       3.698594   -2.019484    0.076385
H       3.538584   -0.342582   -0.591656
H       2.761963   -1.032986    2.245004
H       0.316323   -0.408850    2.234176
