21

C       0.065228    1.510085   -0.125245
C      -0.037104   -0.020107   -0.031009
C      -1.512309   -0.453995   -0.003083
C       0.839469   -0.644476   -1.130502
C       1.604209   -1.626869   -0.616504
C       3.012309   -1.225683   -0.158146
C       2.255982   -1.000936    1.206467
C       1.175529   -1.972208    0.824157
C       0.719679   -0.609467    1.190090
H       1.108871    1.837280   -0.160657
H      -0.443813    1.889825   -1.017796
H      -0.402777    1.974936    0.749965
H      -2.023528   -0.132221   -0.916492
H      -1.599833   -1.541802    0.067640
H      -2.041007   -0.012790    0.850128
H       1.183240   -0.019792   -1.952027
H       3.738862   -2.035461   -0.022190
H       3.479666   -0.380786   -0.672453
H       2.767375   -0.962848    2.166032
H       0.920970   -2.937720    1.240538
H       0.338804   -0.408386    2.191727
