16

C      -0.059027    1.454328   -0.134809
C      -0.245384   -0.052309   -0.099051
O      -1.082017   -0.593470    0.598680
N       0.595650   -0.761274   -0.918110
C       0.478145   -2.203566   -1.049067
C       0.237426   -2.642983   -2.417610
C       0.061716   -3.023006   -3.550752
C      -0.166047   -3.440568   -4.910316
O      -0.095799   -4.584449   -5.296275
H      -0.912220    1.901671   -0.653768
H      -0.062639    1.831596    0.889628
H       0.860485    1.769580   -0.634411
H       1.241703   -0.274788   -1.516868
H       1.372521   -2.708501   -0.659509
H      -0.359956   -2.492530   -0.403676
H      -0.418750   -2.610334   -5.601013
