19

O       0.320976    0.756676   -0.615262
C      -0.062701   -0.521022   -0.183706
C      -0.018415   -0.840197    1.357304
C      -1.434458   -1.496208    1.202180
C      -1.568737   -0.761518   -0.135075
C      -2.583823    0.296651   -0.455824
C      -2.516541   -0.974748   -1.272367
C       1.078568   -1.627295    1.873918
C       1.998556   -2.296215    2.267185
H       1.276487    0.767811   -0.729240
H       0.457558   -1.310252   -0.744589
H      -0.109127    0.109337    1.893983
H      -1.364397   -2.581740    1.091586
H      -2.160759   -1.261521    1.983020
H      -3.418659    0.423735    0.226131
H      -2.219766    1.212245   -0.907785
H      -2.122432   -0.910243   -2.281932
H      -3.306475   -1.708514   -1.146656
H       2.805976   -2.883897    2.627486
