18

N       0.319235    0.585727   -0.289797
C      -0.149730   -0.617408    0.128473
O       0.588135   -1.531910    0.453479
C      -1.683032   -0.744190    0.127163
O      -2.093467   -1.859484    0.861546
C      -2.465580   -3.016918    0.161814
C      -1.614852   -3.571477   -0.969998
C      -1.600948   -4.229464    0.394511
O      -0.487070   -4.139788    1.208359
H       1.314756    0.735896   -0.310889
H      -0.289629    1.358914   -0.494497
H      -2.117589    0.152544    0.589256
H      -2.025681   -0.780136   -0.916170
H      -3.545340   -3.135507    0.085563
H      -2.128891   -4.046670   -1.799183
H      -0.711296   -3.036327   -1.238643
H      -2.092797   -5.190087    0.511026
H      -0.127604   -3.239052    1.129391
