15

C       0.292861    1.204891   -0.110859
O      -0.114148   -0.171875   -0.167668
C       0.468684   -0.906563   -1.128088
O       1.269890   -0.493475   -1.923353
C      -0.007397   -2.353726   -1.032408
O       0.243202   -3.083197   -2.208827
C       1.533095   -3.416075   -2.459282
N       1.815004   -4.043659   -3.513891
H       1.368663    1.279233    0.065296
H       0.051644    1.712540   -1.047583
H      -0.262931    1.643294    0.717331
H       0.468268   -2.812068   -0.152855
H      -1.086180   -2.374425   -0.867887
H       2.228725   -3.102656   -1.671607
H       2.814348   -4.232544   -3.549005
