20

C      -0.907091    1.159167    0.233442
C      -0.021054   -0.059789    0.003192
C       0.876453   -0.116875   -1.278688
C       2.105271   -0.393913   -0.385685
C       3.158036   -1.443322   -0.571640
N       3.506619   -0.036487   -0.557415
C       3.880195    0.568993   -1.829432
C       1.269472   -0.147753    0.853252
O       1.502651   -0.033335    2.021843
H      -0.340349    2.087853    0.108032
H      -1.746285    1.177693   -0.469055
H      -1.310964    1.150287    1.250140
H      -0.602938   -0.981304    0.124533
H       0.618704   -0.887770   -2.006794
H       0.930107    0.849019   -1.790336
H       3.493804   -2.026190    0.282056
H       3.148762   -1.969014   -1.526947
H       3.349378    0.146031   -2.697314
H       3.679608    1.643924   -1.790643
H       4.954522    0.428279   -1.980883
