19

C       0.007691    1.445705   -0.075812
N      -0.156624    0.020942    0.131625
C       0.565662   -0.665767    1.093318
C       1.255021   -0.013741    2.132226
N       1.918630   -0.657970    3.089862
C       1.938186   -1.989719    3.062633
C       1.300057   -2.752885    2.079457
C       1.360049   -4.259210    2.097990
C       0.609338   -2.066349    1.087990
H       1.051190    1.743069   -0.262858
H      -0.596571    1.746501   -0.934367
H      -0.351611    2.008029    0.792980
H      -0.344979   -0.509530   -0.704085
H       1.266236    1.070566    2.188501
H       2.491596   -2.483021    3.858881
H       0.360678   -4.698447    2.193914
H       1.798204   -4.654459    1.174714
H       1.964051   -4.618536    2.935331
H       0.093657   -2.614797    0.302181
