17

N      -0.022334    1.430067    0.255122
C       0.027341    0.041036    0.069126
C      -1.023784   -0.835101    0.001877
O      -0.561050   -2.155220   -0.095003
C       0.766753   -2.041276   -0.085264
C       1.212614   -0.769382    0.022590
C       2.711802   -0.782228   -0.095947
C       3.000426   -2.320439    0.044511
N       1.725716   -3.026801   -0.299691
H       0.696497    1.915904   -0.266026
H      -0.924314    1.824994    0.021716
H      -2.091618   -0.724105    0.067140
H       3.058904   -0.411799   -1.070604
H       3.249241   -0.214632    0.670844
H       3.804449   -2.656453   -0.614220
H       3.288719   -2.543372    1.079664
H       1.588193   -3.882281    0.226437
