20

C      -0.037028    1.525923   -0.094381
C       0.054315    0.005160    0.082709
C       0.823850   -0.391448    1.347377
O      -1.285107   -0.574586    0.091766
C      -2.164080   -0.269026    1.061056
O      -3.268443   -0.727245    1.084188
C       0.728817   -0.611183   -1.140251
C       0.460269   -2.001176   -1.573854
N      -0.011615   -0.855934   -2.380158
H       0.966247    1.945224   -0.214376
H      -0.618024    1.771060   -0.987280
H      -0.498675    2.012166    0.769695
H       0.433836    0.102629    2.241818
H       0.780196   -1.473531    1.494160
H       1.873957   -0.101875    1.243952
H      -1.773461    0.430983    1.818343
H       1.725814   -0.203634   -1.299556
H       1.253618   -2.588007   -2.027595
H      -0.280184   -2.569664   -1.020489
H      -1.005273   -0.731154   -2.195215
