17

N      -0.059824    1.305246   -0.066639
C       0.049883   -0.042227    0.019796
O       1.091799   -0.662376    0.051705
C      -1.314156   -0.730946    0.070660
N      -2.379277   -0.036729    0.063590
C      -3.668732   -0.720158    0.049662
C      -3.559745   -2.178174   -0.405691
C      -2.382989   -2.821221    0.315862
O      -1.177739   -2.067359    0.115355
H       0.775708    1.863598   -0.075752
H      -0.976753    1.721359   -0.060856
H      -4.103204   -0.661300    1.057079
H      -4.342439   -0.155884   -0.604161
H      -4.478980   -2.733164   -0.194172
H      -3.387848   -2.220907   -1.486900
H      -2.573201   -2.881822    1.395426
H      -2.162816   -3.825863   -0.050737
