19

C       0.022746    1.437107    0.070258
O      -0.275472    0.056398   -0.084198
C       0.391768   -0.574214   -1.073362
N       0.209382   -1.801170   -1.286042
C       0.931900   -2.416499   -2.341817
C       1.390925   -3.845783   -2.132458
C       0.272982   -3.555725   -3.099502
C      -1.146405   -3.979100   -2.797501
H       1.079004    1.595928    0.321034
H      -0.221827    2.006711   -0.835066
H      -0.596081    1.795487    0.893750
H       1.079359    0.068645   -1.644688
H       1.596926   -1.771388   -2.921911
H       2.364898   -4.133075   -2.513560
H       1.122730   -4.292638   -1.181369
H       0.544365   -3.602052   -4.151494
H      -1.376601   -3.840581   -1.739131
H      -1.866188   -3.386420   -3.373175
H      -1.301104   -5.033382   -3.052602
