16

C       0.074451    1.433453   -0.456482
O       0.497413    0.102723   -0.182199
C       0.661861   -0.666093   -1.325272
C       1.057004   -2.139523   -1.029458
O      -0.126199   -2.601537   -1.750503
C      -0.577018   -1.308380   -1.950781
N      -1.639308   -0.872392   -2.445605
C       2.333688   -2.639295   -1.664694
O       3.375241   -2.733018   -1.072189
H       0.808494    1.957836   -1.085807
H      -0.900244    1.446082   -0.957044
H       0.000926    1.940616    0.506984
H       1.301720   -0.167814   -2.070623
H       1.010692   -2.380574    0.034277
H      -2.268274   -1.624684   -2.732700
H       2.230769   -2.892449   -2.743589
