15

O       0.397245    1.573967   -0.033932
C       0.126201    0.188985    0.045297
C       0.515635   -0.534329   -1.168487
C       0.866115   -1.116965   -2.158882
C       0.772554   -0.438853    1.293153
C      -0.026418   -0.503801    2.551527
N       0.279132   -1.726482    1.804534
C       2.206346   -0.237735    1.358338
N       3.340895   -0.017525    1.377749
H       1.314456    1.683238   -0.314358
H      -0.960336    0.112461    0.178606
H       1.173253   -1.633259   -3.035479
H       0.477158   -0.416699    3.508635
H      -1.028809   -0.085174    2.514653
H      -0.514157   -2.030869    1.243331
