16

N      -0.086466    1.224337    0.414125
C      -0.031613    0.024750    0.029261
O       1.100471   -0.632165   -0.382026
C       0.768750   -1.875932   -0.999633
C       1.414739   -2.190413   -2.316295
C       1.840094   -2.914327   -1.050939
C      -0.675526   -2.130000   -0.710984
O      -0.960893   -2.120702    0.687776
C      -1.188087   -0.914842   -0.065984
H       0.832705    1.666739    0.357746
H       0.836415   -2.728844   -3.060021
H       2.090198   -1.442409   -2.714779
H       2.796139   -2.641623   -0.619488
H       1.556665   -3.952094   -0.915995
H      -1.268878   -2.792773   -1.332973
H      -2.203852   -0.542011   -0.110858
