25

C       0.344412    1.388390   -0.198805
C       0.013969    0.000586    0.324497
O      -1.063565   -0.519763   -0.430189
C      -1.445475   -1.815405   -0.055642
C      -2.245717   -2.025790    1.260593
C      -3.161589   -3.008821    0.479579
C      -2.633814   -2.407868   -0.860521
C      -3.556099   -1.366577   -1.498699
C      -4.755604   -1.999918   -2.210049
H       1.178494    1.820619    0.362197
H       0.621859    1.342993   -1.255813
H      -0.520529    2.050628   -0.100894
H       0.890008   -0.665036    0.238662
H      -0.251458    0.045323    1.393147
H      -0.573544   -2.489156   -0.087549
H      -1.711597   -2.408141    2.133597
H      -2.773650   -1.109926    1.541098
H      -2.865184   -4.051842    0.617205
H      -4.236437   -2.931022    0.661215
H      -2.343577   -3.141611   -1.620209
H      -3.907724   -0.662716   -0.734277
H      -2.974618   -0.768487   -2.208474
H      -5.405038   -1.235820   -2.648804
H      -4.429570   -2.664010   -3.018687
H      -5.364771   -2.595920   -1.521569
