17

C       0.025442    1.546132   -0.228716
C      -0.006817    0.058756    0.031115
N       1.275114   -0.662386    0.007267
C       0.512893   -0.597248    1.263317
C       1.153367    0.151424    2.410833
C       2.020322   -0.754796    3.263152
F       3.017525   -1.308046    2.561663
F       2.570158   -0.078757    4.285175
F       1.300885   -1.762759    3.794159
H       0.911998    2.011138    0.207727
H       0.047091    1.742638   -1.305778
H      -0.864324    2.034385    0.183586
H      -0.860289   -0.447257   -0.420116
H       1.179911   -1.575471   -0.427317
H      -0.012299   -1.497879    1.576108
H       1.787163    0.960137    2.042738
H       0.393273    0.581360    3.071576
