20

C       0.028994    1.460627    0.038376
N       0.010697    0.013341   -0.050540
C       0.601790   -0.635818   -1.099675
O       1.107461   -0.052727   -2.043973
N       0.566154   -2.037898   -1.016290
C      -0.080582   -2.753333    0.075206
C       1.173376   -2.761614   -2.039058
N       1.192101   -4.028568   -2.054081
C       1.853223   -4.668703   -3.172655
H       0.778659    1.820752    0.754053
H       0.277162    1.849662   -0.948871
H      -0.953300    1.836837    0.340469
H      -0.285179   -0.507534    0.755339
H      -1.134944   -2.469971    0.163424
H      -0.014512   -3.815818   -0.156503
H       0.425293   -2.573882    1.032011
H       1.612515   -2.108598   -2.795653
H       1.144607   -5.319735   -3.698543
H       2.278731   -3.961254   -3.901710
H       2.661546   -5.312687   -2.805993
