17

C      -0.018738    1.341650    0.012658
O      -0.002969   -0.090381   -0.066988
C       0.598409   -0.600493   -1.156562
O       1.096140    0.069468   -2.026987
C       0.613332   -2.119800   -1.119419
N       0.729091   -2.631514   -2.476136
C       1.747043   -2.572605   -0.175929
O       1.739288   -3.991909   -0.191173
H       0.999263    1.739302    0.019130
H      -0.556049    1.766244   -0.838797
H      -0.529607    1.581016    0.945097
H      -0.328252   -2.462846   -0.674467
H       1.386686   -2.049952   -2.988255
H       1.103366   -3.574216   -2.432026
H       2.703954   -2.172565   -0.546315
H       1.573096   -2.179026    0.836292
H       2.526869   -4.306254    0.261521
