19

C      -0.028907    1.527875    0.054118
C       0.008380    0.018783    0.035264
C       0.938372   -0.796631   -0.918046
C       0.698806   -1.954986    0.102828
C       0.641228   -0.820567    1.189884
C      -0.787758   -2.170330   -0.060764
O      -1.458317   -3.167531    0.012721
C      -1.323342   -0.721933   -0.193451
O      -2.294174   -0.440747    0.791348
H       0.965289    1.947017    0.240816
H      -0.388728    1.925043   -0.901941
H      -0.704675    1.884547    0.837658
H       0.625506   -0.945563   -1.956312
H       1.969600   -0.437825   -0.884849
H       1.336020   -2.832169    0.188016
H       1.643197   -0.474150    1.453943
H       0.042448   -0.989932    2.087061
H      -1.717519   -0.532740   -1.205385
H      -2.853341   -1.224835    0.862085
