18

O       0.818904    0.289485    0.445090
C       0.080597    1.177970    0.121945
C      -1.440436    1.176761    0.173393
N      -1.969815    2.396641    0.766962
C      -1.520663    2.699237    2.122816
C      -0.130025    3.220611    2.485612
C       1.060836    3.356459    1.893388
C       1.546420    2.965441    0.527059
O       0.499850    2.418593   -0.269900
H      -1.842297    1.076233   -0.841095
H      -1.758574    0.300459    0.745634
H      -1.756471    3.176248    0.155480
H      -2.219426    3.446118    2.524741
H      -1.695399    1.801101    2.733946
H      -0.152912    3.567196    3.520327
H       1.854387    3.797649    2.496445
H       1.924524    3.835468   -0.020061
H       2.366394    2.241442    0.614708
