16

C       0.042397    1.403993    0.091451
N       0.120312   -0.034006   -0.030184
C       0.640962   -0.645799   -1.110234
N       1.110860    0.025938   -2.121587
C       1.618167   -0.720104   -3.168954
C       1.640267   -2.058941   -3.175128
O       1.147117   -2.781471   -2.113096
C       0.628459   -2.131375   -1.038817
N       0.155835   -2.733601   -0.023614
H       1.037731    1.859193    0.040116
H      -0.558848    1.836662   -0.715919
H      -0.415319    1.651328    1.050634
H      -0.214943   -0.647858    0.696054
H       2.010961   -0.167114   -4.014149
H       2.020149   -2.699454   -3.956937
H       0.219035   -3.746164   -0.126243
