21

C      -0.443370    1.375883   -0.596056
O      -0.730186    0.001741   -0.743343
C      -0.806148   -0.689254    0.494454
C      -1.079983   -2.169714    0.222460
O      -0.953481   -2.813448    1.484311
C      -2.502612   -2.377636   -0.316634
O      -2.791275   -3.768577   -0.427701
C      -0.029151   -2.765986   -0.742655
O      -0.234752   -2.409173   -2.097561
H      -0.414781    1.814213   -1.596049
H      -1.218654    1.884033   -0.004065
H       0.528190    1.534788   -0.105066
H       0.141292   -0.599284    1.047933
H      -1.603176   -0.264220    1.124216
H      -1.435005   -3.647024    1.394432
H      -3.216038   -1.974098    0.409707
H      -2.636736   -1.858063   -1.269696
H      -2.392064   -4.076034   -1.248786
H       0.974779   -2.488733   -0.386142
H      -0.095346   -3.857929   -0.689492
H      -0.257599   -1.443021   -2.111174
