19

C       0.057436    1.476007    0.067995
C       0.041392   -0.017158   -0.009525
C      -0.023115   -0.773242   -1.114402
C      -0.137655   -2.238738   -0.763821
O       0.705944   -3.180212   -1.423271
C       1.287169   -4.019227   -0.419003
C       1.155975   -3.242116    0.875151
C       0.332833   -2.222921    0.672379
C       0.065660   -0.870923    1.264915
H       0.954045    1.834068    0.590008
H       0.035843    1.931127   -0.925771
H      -0.803376    1.853644    0.634925
H      -0.084036   -0.392629   -2.127692
H      -1.187786   -2.570537   -0.875765
H       0.773899   -4.996027   -0.386923
H       2.335801   -4.210522   -0.682611
H       1.734827   -3.465363    1.762536
H       0.829297   -0.549157    1.982341
H      -0.901632   -0.809030    1.786151
