19

C       0.261072    1.459260    0.505748
C      -0.041750    0.016578    0.233605
C      -0.934826   -0.815516    1.058101
N       0.518141   -1.121896    1.084355
C       0.839757   -1.854845   -0.203874
C       0.307483   -3.273636   -0.281507
O       0.834377   -4.062828    0.769894
C       0.264348   -0.713229   -1.080781
H       1.271232    1.721776    0.173348
H      -0.446087    2.109920   -0.022509
H       0.188010    1.675818    1.575362
H      -1.278274   -0.404223    2.002583
H      -1.633471   -1.506395    0.592475
H       1.930483   -1.898106   -0.269479
H      -0.794762   -3.284590   -0.276624
H       0.625597   -3.738952   -1.221898
H       0.761336   -3.534627    1.574056
H      -0.602314   -0.941350   -1.709513
H       1.022069   -0.223688   -1.695509
