11

N      -0.039050    1.388901    0.010159
C       1.291430    1.776045   -0.000431
N       2.161891    0.803204   -0.014401
C       1.366808   -0.332027   -0.013040
N       1.573821   -1.631435   -0.022459
O       0.281946   -2.159779   -0.012749
C      -0.662080   -1.182259    0.001977
C      -0.017651    0.008458    0.002374
H      -0.834042    2.002696    0.021776
H       1.549509    2.826969    0.002972
H      -1.684726   -1.518822    0.010091
