15

C      -0.136098    1.322209   -0.102456
C       0.096725   -0.156856   -0.021837
N       1.232821   -0.692281   -0.069417
O      -1.149923   -0.780807    0.109659
C      -1.321846   -2.114144    0.178307
N      -0.370813   -3.035214    0.320582
N      -1.071450   -4.170966    0.347133
N      -2.383645   -4.060464    0.239730
C      -2.578786   -2.748877    0.128360
H       0.821697    1.830271   -0.202585
H      -0.774562    1.562450   -0.958271
H      -0.650731    1.676189    0.796291
H       1.196108   -1.706872    0.010879
H      -0.616756   -5.063564    0.445402
H      -3.561495   -2.321522    0.022512
