20

C      -0.092383    1.563472    0.120999
C       0.009924    0.044928    0.051181
C       0.779537   -0.596915   -1.127978
O       1.727010   -1.203168   -0.194605
C       1.094687   -0.612419    0.883828
N       1.387026   -0.636153    2.099337
C       2.570353   -1.364914    2.553906
C       3.133673   -0.634335    3.774012
O       2.147981   -0.474433    4.771826
H       0.878592    2.033410   -0.064379
H      -0.804198    1.942406   -0.618943
H      -0.432078    1.874954    1.112524
H      -0.967403   -0.417298    0.218106
H       0.255631   -1.362501   -1.704679
H       1.287615    0.103461   -1.796842
H       2.261218   -2.373264    2.858448
H       3.333366   -1.467262    1.771097
H       3.954460   -1.212216    4.212717
H       3.543555    0.338332    3.453265
H       1.361186   -0.173450    4.297588
