15

C      -0.065703   -1.241107   -0.079709
C      -0.026701   -0.040026   -0.038797
C       0.022419    1.416778    0.016964
C      -0.620530    2.023533    1.304493
C       0.223617    3.279695    1.628868
C       1.526517    3.007593    0.914704
C       1.428337    2.002518    0.049530
H      -0.099983   -2.301635   -0.116967
H      -0.498066    1.802776   -0.873624
H      -1.683991    2.234689    1.173522
H      -0.524161    1.294972    2.113692
H      -0.243140    4.197342    1.243283
H       0.348518    3.429759    2.706898
H       2.417982    3.604050    1.075234
H       2.212017    1.636263   -0.602595
