18

C       0.001619    1.467893   -0.174931
C       1.278879    0.714220   -0.023662
C       1.876686    0.425660    1.359446
C       1.101857    1.181477    2.467163
C       0.002591    0.111212    2.648710
O       0.846009   -1.010706    3.060703
C       1.270933   -1.014244    1.682639
C      -0.138763   -0.613308    1.236275
N      -0.036223    0.006240   -0.083800
H      -0.393040    2.060101    0.641991
H      -0.260916    1.849991   -1.158588
H       1.920526    0.596768   -0.894044
H       2.960967    0.517720    1.396775
H       1.671260    1.242822    3.397513
H       0.778731    2.183314    2.189587
H      -0.838593    0.298693    3.315814
H       1.804851   -1.908052    1.362620
H      -0.890871   -1.400147    1.264026
