21

C      -0.065024    1.564280    0.046257
C       0.034385    0.047413   -0.039258
C       0.761951   -0.557075   -1.279953
C       0.317025   -1.989381   -1.719023
C       1.550904   -2.612646   -0.987219
C       1.830740   -1.246317   -0.365606
C       3.066610   -0.522731    0.143681
O       2.270015    0.188205    1.127807
C       1.105916   -0.632510    0.862766
H       0.925114    2.022166   -0.021379
H      -0.687964    1.957719   -0.764169
H      -0.510342    1.878754    0.996370
H      -0.955327   -0.401662    0.109813
H       1.037249    0.125217   -2.087591
H      -0.649705   -2.292329   -1.306905
H       0.293683   -2.155126   -2.798042
H       1.370681   -3.446771   -0.302394
H       2.332121   -2.914137   -1.692507
H       3.812070   -1.168146    0.630939
H       3.578548    0.156109   -0.549777
H       0.786274   -1.182875    1.754790
