21

C      -0.622435    1.302111   -1.597429
C      -0.225999   -0.052247   -1.042362
C       1.208859   -0.528707   -0.948056
C       2.392418    0.303583   -1.386845
O       3.605082   -0.125172   -0.780825
C       0.418512   -0.234865    0.318349
C       0.731670    0.937671    1.237937
C      -0.512248    1.400448    1.970941
O      -0.919183    2.532746    1.989520
H       0.058925    2.103217   -1.303987
H      -0.649650    1.277949   -2.692164
H      -1.621025    1.583861   -1.247609
H      -0.934708   -0.833498   -1.306519
H       1.366721   -1.585759   -1.148412
H       2.549008    0.182199   -2.464233
H       2.220417    1.374581   -1.211398
H       3.482614   -0.082160    0.172908
H       0.093946   -1.116376    0.866619
H       1.458612    0.616328    1.999648
H       1.155115    1.798536    0.717248
H      -1.055107    0.587292    2.508092
