18

O      -0.282728    0.064880    0.164701
C      -0.114320    1.242228    0.003519
C       1.235115    1.947291    0.085885
C       1.469465    2.575415    1.495075
C       2.531806    1.467270    1.633195
O       2.318573    1.023644    0.272164
C       1.437176    2.840353   -1.119911
C       2.802927    3.231609   -1.537518
N       2.026239    2.264855   -2.336863
H      -0.964246    1.937965   -0.194557
H       1.859972    3.592919    1.458233
H       0.630511    2.527761    2.191336
H       3.561693    1.801612    1.794317
H       2.288478    0.676244    2.350167
H       0.612833    3.527862   -1.305673
H       2.965779    4.194838   -2.012159
H       3.635274    2.850961   -0.953797
H       2.364210    1.328656   -2.116538
