21

C      -0.357885    1.605998   -0.143324
C       0.027419    0.138094    0.005029
C      -1.175434   -0.785489   -0.176651
C       1.274747   -0.306631   -0.829539
N       1.909086   -0.759225    0.411005
C       0.867317   -0.197238    1.281962
C       3.269208   -0.800954    0.600484
N       3.654881   -0.846379    1.935232
O       4.063283   -0.773343   -0.322453
H       0.507313    2.262896   -0.008933
H      -0.774876    1.801281   -1.137781
H      -1.115576    1.890801    0.595702
H      -1.615897   -0.661994   -1.172286
H      -0.888109   -1.836104   -0.065105
H      -1.954542   -0.567504    0.562617
H       1.103159   -1.101869   -1.562326
H       1.822515    0.508148   -1.315717
H       1.199316    0.679349    1.852317
H       0.411353   -0.918475    1.971883
H       3.023111   -1.281301    2.590698
H       4.620508   -1.114398    2.050374
