16

C       0.020762    1.446810   -0.206593
C      -0.110891   -0.027820   -0.120852
C      -1.131945   -0.918114   -0.065168
C      -2.614292   -0.687625   -0.095195
O      -2.993002    0.491618   -0.792293
N      -0.618196   -2.220578    0.037447
C       0.658622   -2.034141    0.039124
O       1.631302   -2.940249    0.115479
O       1.071824   -0.765926   -0.056333
H       0.615287    1.749514   -1.076529
H      -0.975525    1.882630   -0.291451
H       0.511246    1.859100    0.683109
H      -3.093072   -1.584818   -0.513266
H      -3.008965   -0.563710    0.920104
H      -2.681289    0.399388   -1.699026
H       1.201205   -3.802497    0.178262
