19

C       0.035292    1.563427   -0.048334
C       0.063074    0.046027    0.026598
O       0.795459   -0.448987   -1.112042
C       1.277486   -1.775588   -0.831764
C       1.534181   -1.796198    0.656771
C       2.273519   -0.627596    1.283212
C       0.785708   -0.595311    1.192407
O       0.138844   -1.330804    2.240134
C       0.747474   -2.555076    1.733468
H       1.049032    1.970352    0.001284
H      -0.424736    1.891512   -0.984249
H      -0.545780    1.969830    0.784711
H      -0.965596   -0.350879    0.027184
H       0.523969   -2.536051   -1.091133
H       2.153302   -1.924917   -1.470185
H       2.733493   -0.752372    2.257609
H       2.812286    0.004713    0.586207
H      -0.013177   -3.227346    1.319605
H       1.320774   -3.076412    2.508086
