16

C       0.047915    1.511391    0.303770
O       0.439275    0.226326   -0.122272
C       0.680057   -0.659140    0.936841
C      -0.525566   -1.278381    1.704706
C       0.227143   -2.637479    1.662491
C       1.097169   -2.077212    0.503217
H       0.815930    1.980903    0.939185
H      -0.091994    2.123839   -0.590324
H      -0.896701    1.489846    0.868085
H       1.405626   -0.222372    1.642889
H      -0.794785   -0.865579    2.679677
H      -1.409691   -1.289922    1.060067
H       0.813978   -2.807288    2.569305
H      -0.363361   -3.533005    1.460843
H       0.659476   -2.302951   -0.473149
H       2.162556   -2.315977    0.482190
