18

C      -0.342724    1.548382    0.180664
C      -0.073719    0.080368    0.052800
C       0.196113   -0.630718   -1.081523
O       0.379740   -1.954012   -0.777721
C       0.227702   -2.081278    0.568703
C      -0.046166   -0.878205    1.127032
C       0.306843   -0.263169   -2.498661
C       1.221363   -1.002271   -3.414316
N      -0.233941   -1.152598   -3.552139
H       0.441519    2.052291    0.757691
H      -0.398452    2.037090   -0.795311
H      -1.290792    1.734188    0.697703
H       0.341380   -3.078830    0.959663
H      -0.215300   -0.679473    2.174512
H       0.130888    0.791142   -2.689059
H       1.708537   -0.472567   -4.228435
H       1.791686   -1.823114   -2.989920
H      -0.519672   -2.027549   -3.117184
