21

C       1.011435   -0.565384   -0.723085
C      -0.038104    0.035191    0.221218
C      -0.062648    1.566408    0.128652
C      -1.453702   -0.526356   -0.077335
O      -1.869021   -0.175232   -1.372423
C      -1.535853   -2.037393    0.097091
O      -1.879150   -2.739299   -0.836474
C      -1.224084   -2.684140    1.435104
O      -1.454149   -4.061474    1.405995
H       1.996878   -0.131119   -0.531409
H       1.099998   -1.651306   -0.607393
H       0.743404   -0.359560   -1.763045
H       0.207764   -0.240324    1.255815
H      -0.351768    1.882837   -0.877112
H      -0.777156    1.998022    0.837590
H       0.925357    1.981545    0.350120
H      -2.147304   -0.089842    0.663270
H      -2.075552   -1.010042   -1.820370
H      -0.175223   -2.461334    1.690965
H      -1.838241   -2.194911    2.208337
H      -1.722907   -4.261143    0.496046
