17

C       0.006491   -1.130244   -0.304515
C      -0.021828    0.047352   -0.066337
C      -0.031865    1.475775    0.231973
C       1.353603    2.093298    0.136802
C       1.857470    2.746925   -1.135957
O       0.876333    3.082974   -2.093231
C       0.375084    4.343966   -1.686042
O       0.428885    4.366309   -0.269641
C       1.561634    3.592897    0.066793
H       0.017389   -2.169348   -0.521230
H      -0.706747    1.991450   -0.456847
H      -0.433994    1.637696    1.239978
H       2.122127    1.565097    0.695893
H       2.845356    2.550367   -1.537493
H       0.991422    5.156928   -2.106138
H      -0.665005    4.439330   -2.008733
H       2.302846    4.102385    0.673144
