16

C      -0.275636    1.726668    0.204356
C       0.000252    0.235623   -0.056244
C       0.794902   -0.444387    1.058833
C       2.268713   -0.127035    1.026051
O       2.829879    0.516018    0.174151
C       3.044061   -0.690941    2.154467
N       3.639478   -1.132114    3.041990
C      -1.294550   -0.506937   -0.334408
O      -1.609017   -1.559235    0.159154
H       0.663539    2.280433    0.268588
H      -0.866778    2.163398   -0.606665
H      -0.828018    1.868783    1.139343
H       0.581868    0.171170   -0.988398
H       0.407010   -0.181321    2.051888
H       0.680073   -1.535530    1.001106
H      -1.959791    0.006042   -1.065389
