19

C       0.163786    1.462203    0.024643
C       0.023168   -0.027398    0.039198
C      -0.980730   -0.786989    0.859007
C       0.490047   -1.089933    1.011456
C       1.082729   -1.832847   -0.204664
C       2.496321   -2.333727   -0.192828
C       0.100177   -2.133393   -1.265754
N       0.630421   -0.753244   -1.157752
H       1.190421    1.752714   -0.219651
H      -0.495597    1.905868   -0.731033
H      -0.098252    1.889106    0.997585
H      -1.383564   -0.196530    1.677302
H      -1.696352   -1.498873    0.462575
H       1.019936   -0.984501    1.949966
H       2.578308   -3.256314    0.394493
H       2.841952   -2.541583   -1.209240
H       3.170635   -1.592197    0.250322
H       0.479846   -2.633517   -2.153087
H      -0.941494   -2.350597   -1.060956
