20

O      -0.595173    0.797626    0.703742
C       0.103697    0.999900   -0.255358
C       1.375644    1.816493   -0.249143
C       1.326312    2.965253   -1.272637
C       0.266006    4.050931   -0.970104
C       0.866026    5.330704   -1.596428
N       2.336325    5.184840   -1.624507
C       2.907924    4.777729   -0.332945
C       2.622474    3.760527   -1.378818
H      -0.163810    0.581304   -1.255571
H       1.549842    2.191787    0.763492
H       2.201990    1.139530   -0.510932
H       1.124914    2.533953   -2.263011
H      -0.714975    3.806372   -1.385234
H       0.130565    4.158256    0.110681
H       0.535961    5.443267   -2.634782
H       0.586607    6.242870   -1.060465
H       3.929233    5.108216   -0.168874
H       2.280589    4.808164    0.554798
H       3.441791    3.323619   -1.944079
