16

C      -0.339927    1.302574   -0.006114
C       0.137115   -0.126559    0.016006
O       1.398485   -0.310490   -0.749534
C       2.087702   -0.628352    0.380049
N       3.307809   -0.777280    0.630799
C       0.870689   -0.625895    1.295202
O       0.947595    0.220056    2.409386
C       0.450569   -2.026101    1.746281
O      -0.158758   -2.803796    1.062841
H       0.410273    1.978160    0.411098
H      -0.565633    1.607710   -1.031649
H      -1.252103    1.395760    0.591092
H      -0.601536   -0.839600   -0.353101
H       3.892504   -0.636300   -0.194476
H       1.869869    0.482095    2.516950
H       0.765314   -2.251947    2.786749
