24

C       0.838100   -0.199215   -1.290678
C      -0.026354   -0.089806   -0.029409
C       0.627025   -0.641504    1.242807
C       1.958039    0.030003    1.614152
C       1.874374    1.539583    1.864975
C      -0.333118   -0.759069    2.497256
C      -0.096105   -2.270238    2.497299
N      -0.579087   -2.770318    1.185848
C       0.777416   -2.182115    1.299024
H       1.155159   -1.233787   -1.463962
H       0.277183    0.123189   -2.173485
H       1.739872    0.419219   -1.233234
H      -0.311773    0.957105    0.134048
H      -0.957035   -0.643838   -0.184234
H       2.352696   -0.464171    2.511921
H       2.692491   -0.165387    0.822333
H       1.138275    1.777999    2.640296
H       2.841361    1.930568    2.196455
H       1.590452    2.087437    0.961337
H       0.068290   -0.255133    3.379584
H      -1.372012   -0.455093    2.344195
H      -0.041425   -2.934812    3.351030
H      -0.463334   -3.783582    1.190968
H       1.655594   -2.760219    1.032632
