14

N      -0.122565    1.450261   -0.256554
C      -0.064823    0.022454   -0.147928
C       1.095987   -0.562284    0.492281
N       2.043072   -0.988675    1.004216
C      -1.348463   -0.786771    0.074129
C      -2.465367   -0.125635   -0.729712
O      -1.675339   -0.203736   -1.952611
C      -0.645075   -0.863465   -1.252484
H       0.005559    1.888315    0.649742
H       0.597699    1.800998   -0.879248
H      -1.451796   -1.498113    0.881149
H      -3.357132   -0.753166   -0.817307
H      -2.727350    0.903617   -0.475608
H      -0.067957   -1.628550   -1.758494
