17

C       0.115789    1.520891   -0.123047
C       0.047080    0.028061   -0.014094
C      -0.019786   -0.874042   -1.037677
C      -0.009460   -0.725460   -2.524632
C       1.380607   -0.328867   -3.004080
O       1.635323    0.703699   -3.566967
O      -0.067494   -2.149656   -0.546004
C      -0.043084   -2.054091    0.808841
C       0.024321   -0.754689    1.191798
H       0.972595    1.919371    0.431170
H       0.218502    1.843108   -1.162264
H      -0.782306    1.994442    0.290392
H      -0.276778   -1.689562   -2.972064
H      -0.721102    0.031091   -2.866278
H       2.174551   -1.069425   -2.759243
H      -0.082838   -2.988124    1.344678
H       0.055917   -0.384284    2.205154
