15

C      -0.260544    1.353701    0.082147
O       0.080616   -0.017361   -0.051787
C       0.845216   -0.519338    0.995373
C       0.087949   -0.597550    2.263671
N      -0.515762   -0.657211    3.247618
C       1.402208   -1.922490    0.591932
C       2.116859   -2.684336    1.684480
O       1.275058   -2.313786   -0.533808
H       0.638921    1.982598    0.154666
H      -0.814978    1.622262   -0.818209
H      -0.891540    1.531727    0.962894
H       1.731812    0.113578    1.191291
H       1.386842   -3.061781    2.408744
H       2.657534   -3.522752    1.244913
H       2.806919   -2.037197    2.236239
