21

C      -0.022723    1.557926   -0.043156
C      -0.013283    0.050572   -0.057481
C       0.494544   -0.795820   -1.242337
C      -0.302719   -1.941097   -0.572519
C       0.423202   -2.229689    0.753759
C      -0.690982   -2.568116    1.776272
C      -1.097248   -1.096734    1.580654
C       0.386908   -0.724051    1.241403
C      -1.286172   -0.867838    0.051098
H       0.998445    1.958291   -0.021861
H      -0.519370    1.963717   -0.931639
H      -0.545819    1.946636    0.838264
H       0.043947   -0.472685   -2.186888
H       1.574248   -0.929179   -1.378988
H      -0.665335   -2.797229   -1.142430
H       1.349348   -2.803542    0.703332
H      -1.405599   -3.357688    1.518088
H      -0.290982   -2.748039    2.779001
H      -1.727544   -0.547587    2.279547
H       1.118387   -0.368388    1.966280
H      -2.238146   -0.658078   -0.434904
