17

C      -0.054099    1.495283    0.039462
C       0.038335   -0.041586    0.040474
N       0.671579   -0.492677   -1.199663
C       1.841131   -0.967879   -1.158901
O       2.677185   -1.143842   -0.109038
C       2.251878   -0.643206    1.168950
C       0.753128   -0.559147    1.265859
N       0.057127   -0.888820    2.281669
O       0.845994   -1.315193    3.362015
H       0.939965    1.950841    0.097132
H      -0.524360    1.830604   -0.888528
H      -0.647407    1.840801    0.890203
H      -0.981397   -0.439518    0.051528
H       2.325951   -1.324373   -2.066114
H       2.657114   -1.316543    1.923006
H       2.699256    0.349708    1.313507
H       0.181016   -1.585352    4.004085
