18

O       0.004571    1.420134    0.081937
C      -0.004133    0.007320    0.022397
C      -1.436966   -0.504666   -0.109364
C      -2.395579    0.330921   -0.917896
C      -1.701004   -0.833333   -1.569450
C      -0.425901   -0.539798   -2.361591
C       0.686280   -0.539035   -1.275068
C       1.890500    0.208633   -1.616771
N       2.831859    0.841918   -1.842297
H       0.921383    1.720457    0.073957
H       0.483814   -0.418003    0.909557
H      -1.825566   -1.125593    0.688490
H      -3.450434    0.225875   -0.688957
H      -2.085324    1.334867   -1.182176
H      -2.284294   -1.705870   -1.839709
H      -0.227221   -1.293498   -3.126447
H      -0.470033    0.431141   -2.862950
H       0.973468   -1.578147   -1.076689
