21

C      -0.019980    1.639031    0.017481
C      -0.368086    0.164908   -0.210716
C       0.599007   -0.534032   -1.172995
N       1.999562   -0.632208   -0.685590
C       2.137702   -2.007547   -1.222406
C       0.591391   -2.110212   -1.305432
C      -0.060881   -2.881609   -0.166318
C       0.512525    0.079945   -2.511763
N       0.474020    0.567209   -3.560664
H       0.991487    1.737021    0.424191
H      -0.073262    2.212486   -0.913204
H      -0.712786    2.092141    0.731967
H      -0.331659   -0.371409    0.741070
H      -1.387787    0.070880   -0.603310
H       2.642501    0.058310   -1.057966
H       2.619500   -2.066093   -2.206250
H       2.638987   -2.699406   -0.537559
H       0.208098   -2.458014   -2.265702
H       0.353286   -2.594626    0.804529
H      -1.144138   -2.728251   -0.138754
H       0.118773   -3.953578   -0.300170
