16

C       0.146910    1.367639    0.071852
N      -0.082092   -0.061967    0.041713
C      -1.323109   -0.597452    0.029265
O      -2.372519    0.000793    0.041109
O      -1.201508   -1.974605    0.000145
C      -2.361580   -2.702445   -0.016174
N      -2.284339   -3.953995   -0.042704
C      -3.533956   -4.689410   -0.059377
H       0.704120    1.699526   -0.810883
H      -0.826893    1.857957    0.080476
H       0.701390    1.662374    0.969348
H       0.694119   -0.702728    0.029201
H      -3.262756   -2.085167   -0.003801
H      -4.431304   -4.051459   -0.046601
H      -3.569947   -5.322077   -0.953106
H      -3.571505   -5.359526    0.806558
