17

O      -0.219933    1.324222   -0.145459
C      -0.024835   -0.049154    0.031751
C      -0.477716   -0.697117    1.327340
C      -1.285766   -0.881801    0.052737
O      -2.524290   -0.266116   -0.070865
C      -1.058283   -2.148198   -0.740385
C       0.451868   -2.166365   -1.031219
O       1.081705   -3.123213   -1.394507
C       1.034550   -0.762009   -0.780785
H       0.310378    1.803820    0.499323
H       0.096748   -1.520072    1.744058
H      -0.927719   -0.034248    2.058681
H      -2.349683    0.680266   -0.170112
H      -1.364956   -3.074279   -0.246630
H      -1.598565   -2.086254   -1.693584
H       1.157498   -0.259404   -1.748758
H       2.022844   -0.837430   -0.316942
