15

C      -0.030351   -1.194352    0.001144
C      -0.032071    0.010013    0.004462
C      -0.033472    1.416603    0.009094
C      -0.775565    2.482483    0.789740
C       0.564941    3.077303    1.178837
N       1.201709    2.376807   -0.005410
C       0.531430    3.084940   -1.166393
C      -0.797476    2.487503   -0.743020
H      -0.025240   -2.255956   -0.002093
H      -1.680504    2.350935    1.369170
H       0.693194    4.165358    1.181102
H       0.961550    2.653911    2.104418
H       0.659683    4.172997   -1.165240
H       0.901383    2.667613   -2.105666
H      -1.718621    2.359673   -1.297196
