21

C       0.018276    1.578097    0.050646
C       0.060921    0.066668    0.052901
C       1.298189   -0.768757   -0.249625
C       2.516273   -0.148383    0.420527
O       1.826888   -0.068116    1.696291
C       0.689216   -0.758757    1.141891
C       0.027447   -1.780812    2.011422
C      -0.670312   -1.149511    3.224680
O      -1.296467   -2.115547    4.053498
H       0.841344    1.992742    0.637481
H       0.079246    1.979611   -0.966602
H      -0.915345    1.938210    0.495863
H      -0.829399   -0.413525   -0.350569
H       1.317131   -1.545788   -1.002662
H       3.370730   -0.830906    0.490998
H       2.857922    0.831826    0.067800
H      -0.709829   -2.340243    1.425225
H       0.780637   -2.499642    2.362465
H       0.049447   -0.537055    3.786838
H      -1.470160   -0.482967    2.885726
H      -0.604539   -2.651888    4.453420
