20

C       0.091476    1.585888    0.017938
C       0.029253    0.058541    0.027014
C       0.700812   -0.609472   -1.202393
C       1.182199   -1.969380   -0.702288
C       0.760914   -3.252617   -1.278156
O       2.073368   -2.731434   -1.513548
C       1.448241   -1.810738    0.766401
N       2.211480   -0.573784    1.068817
C       0.742271   -0.585695    1.214540
H       1.133276    1.920762    0.035288
H      -0.385630    1.997552   -0.877516
H      -0.417115    2.010295    0.890543
H      -1.021087   -0.260037    0.071875
H       0.030364   -0.688824   -2.061296
H       1.575025   -0.028414   -1.509979
H       0.717959   -4.146607   -0.655540
H       0.096806   -3.261408   -2.142140
H       1.578018   -2.684588    1.395849
H       2.641615   -0.674287    1.984867
H       0.311323   -0.506498    2.208180
