23

C      -0.023875    1.575145   -0.028603
C       0.122475    0.067658    0.056072
C       1.366170   -0.734074   -0.228565
C       1.426392   -1.831924   -1.253153
C       2.599160    0.013538    0.297762
C       1.989904   -0.064720    1.737515
O       1.768313    1.121010    2.479062
C       0.731912   -0.729167    1.189065
C      -0.030200   -1.790931    1.933685
H       0.810080    2.101519    0.435154
H      -0.107110    1.897974   -1.073290
H      -0.933283    1.897520    0.490428
H      -0.758670   -0.450948   -0.324064
H       1.630471   -1.430581   -2.253850
H       2.218021   -2.555290   -1.023533
H       0.479189   -2.379014   -1.308780
H       3.527149   -0.557511    0.202381
H       2.764531    1.019719   -0.099779
H       2.555908   -0.787696    2.342865
H       2.615796    1.423996    2.820454
H      -0.624614   -1.354591    2.745528
H      -0.721982   -2.323795    1.272714
H       0.642766   -2.532988    2.379945
