16

O      -0.099498    1.288307   -0.001999
N       0.056122   -0.107754   -0.082366
C      -1.053262   -0.699033    0.060461
C      -1.404054   -2.134412   -0.054343
C      -2.298146   -2.537937    1.105725
C      -2.899345   -1.746643   -0.005225
C      -2.528726   -0.246108    0.141865
C      -3.003220    0.464874    1.314369
C      -3.406396    1.028340    2.296710
H       0.803300    1.599513   -0.126063
H      -0.894224   -2.864082   -0.669138
H      -2.554103   -3.592380    1.120771
H      -2.162951   -2.091440    2.086071
H      -3.704233   -2.111387   -0.628951
H      -2.762900    0.318241   -0.767949
H      -3.755053    1.538087    3.160346
