16

C       0.024935    1.562607    0.010606
O       1.179071    0.690212   -0.005890
C      -0.096242    0.111310    0.003449
C      -0.549724   -0.971052    0.988435
C      -2.081543   -0.976112    0.801462
C      -2.097135   -0.967077   -0.767428
C      -0.569333   -0.959683   -0.984734
O      -0.118034   -1.954777   -0.008238
H      -0.119075    2.119860    0.935147
H      -0.137357    2.130456   -0.904410
H      -0.114597   -1.106806    1.977395
H      -2.527951   -1.879329    1.221230
H      -2.568554   -0.103813    1.245559
H      -2.551894   -1.865454   -1.188614
H      -2.592781   -0.089781   -1.191684
H      -0.153961   -1.083983   -1.983645
