23

C      -0.176198    1.551554   -0.000243
C       0.039284    0.038150   -0.001039
C       0.883264   -0.487311   -1.195798
C       1.623080   -1.694620   -0.624183
C       2.591673   -1.471767    0.527961
C       2.286970   -0.152611    1.233126
C       0.763515   -0.547357    1.235715
C       0.030922   -0.399724    2.555190
C       1.184517   -1.980217    0.784023
H       0.774660    2.091853    0.066635
H      -0.672520    1.874454   -0.921606
H      -0.802899    1.872132    0.838518
H      -0.945430   -0.449912   -0.043751
H       0.248936   -0.768509   -2.042477
H       1.575913    0.280790   -1.561817
H       1.863417   -2.531083   -1.271545
H       3.526411   -2.018666    0.578858
H       2.688869   -0.137133    2.250256
H       2.574245    0.779288    0.732622
H      -0.067477    0.652846    2.843321
H      -0.978582   -0.824607    2.496303
H       0.562386   -0.914020    3.362853
H       0.829932   -2.926982    1.171246
