15

C      -0.005694    1.441052    0.058773
N       0.005887   -0.000980   -0.076346
C       0.617445   -0.634861   -1.094228
N       1.200518   -0.070643   -2.102067
C       1.721280   -1.089036   -3.024527
C       1.397171   -2.451312   -2.426385
O       1.645540   -3.550265   -2.840614
C       0.647723   -2.128700   -1.111224
O       0.203173   -2.890371   -0.291093
H       0.989865    1.838453    0.292899
H      -0.336169    1.900236   -0.877294
H      -0.696253    1.719483    0.856549
H      -0.324434   -0.586608    0.673667
H       1.269921   -0.986226   -4.019635
H       2.803914   -0.975939   -3.163049
