18

O      -0.024060   -0.018500   -0.279968
C      -0.032860    1.169983   -0.072678
C      -1.339080    1.944460    0.132388
C      -1.277111    2.941125    1.268484
C      -0.470419    4.002438    1.265648
C       0.401555    4.325253    0.100097
C       1.887820    4.356538    0.183982
N       1.215005    3.289753   -0.561051
C       1.268511    1.961687    0.049718
H      -1.536818    2.470015   -0.812872
H      -2.134809    1.210801    0.269510
H      -1.912436    2.747678    2.128169
H      -0.469544    4.694053    2.104702
H      -0.053473    5.009048   -0.619179
H       2.456909    5.067098   -0.408719
H       2.341569    4.090863    1.137627
H       1.501706    1.993717    1.128793
H       2.057941    1.382668   -0.435728
