19

C       0.139188    1.433631   -0.460588
N       0.224978    0.001693   -0.210775
C       1.559367   -0.540579    0.059467
C       0.542532   -0.427028    1.135759
C       0.671242    0.404580    2.422943
C       0.376820   -0.909163    3.208185
O      -0.435901   -0.866513    4.351700
C      -0.162308   -1.552721    1.897123
H       0.862516    2.032430    0.116814
H       0.313131    1.622315   -1.524631
H      -0.868327    1.786335   -0.216053
H       1.781654   -1.501149   -0.399488
H       2.397105    0.156674    0.087771
H       1.608488    0.925537    2.630202
H      -0.158706    1.114129    2.531974
H       1.306739   -1.387292    3.527045
H      -1.282760   -0.481705    4.101732
H      -1.252607   -1.456033    1.826351
H       0.115595   -2.586004    1.677639
