13

O       0.057356   -0.090825   -0.043711
C       0.110958    1.106974   -0.169207
C       1.369268    1.891533   -0.097466
N       2.748773    1.333963   -0.037107
C       2.982499    2.810741    0.051054
C       1.838873    3.115838   -0.960614
O       1.193542    4.124479   -0.136097
C       1.666099    3.147666    0.827770
H      -0.798174    1.727555   -0.325676
H       2.913745    0.877700    0.862093
H       3.968442    3.267980    0.129086
H       1.853540    3.233128   -2.042623
H       1.462782    3.302539    1.888465
