19

C       0.023651    1.511381   -0.067645
C       0.023426   -0.007534   -0.030138
O       0.675946   -0.487492   -1.186422
C       0.732084   -1.894722   -1.252272
C       1.453347   -2.290927   -2.533085
C       1.566966   -3.800314   -2.699474
O       2.251463   -4.051151   -3.917277
H       1.047931    1.893984   -0.093852
H      -0.498738    1.872867   -0.957961
H      -0.476413    1.915757    0.817533
H       0.536899   -0.372266    0.876454
H      -1.009980   -0.393368    0.012282
H       1.259766   -2.298792   -0.369790
H      -0.287367   -2.320050   -1.234443
H       0.919926   -1.873531   -3.393609
H       2.456890   -1.852563   -2.534572
H       2.109442   -4.232290   -1.842022
H       0.561609   -4.253387   -2.707650
H       2.325740   -5.003215   -4.029206
