24

C       1.444472    0.231971   -2.389462
C       0.588397   -0.469712   -1.322266
C       0.974804   -0.016963    0.093684
C      -0.906787   -0.303582   -1.597088
C      -1.430468    1.127460   -1.730548
O      -1.448842    1.593582   -3.077488
N      -1.467199   -1.264326   -2.567198
C      -1.900160   -1.337713   -1.164345
C      -1.584141   -2.601988   -0.399321
H       2.506404    0.006095   -2.248364
H       1.164149   -0.100472   -3.394436
H       1.347395    1.324339   -2.335900
H       0.798729   -1.540532   -1.405816
H       0.812165    1.057209    0.237149
H       0.392057   -0.545636    0.854098
H       2.035159   -0.211776    0.285160
H      -2.473479    1.180010   -1.404207
H      -0.855663    1.808596   -1.087309
H      -0.544820    1.586022   -3.406625
H      -2.153992   -0.788357   -3.148411
H      -2.891962   -0.942025   -0.942418
H      -0.601692   -3.001126   -0.658123
H      -1.616892   -2.425394    0.681402
H      -2.324360   -3.375038   -0.633253
