19

C      -0.042841    0.150932    1.070547
N      -0.852898   -0.931763    0.541026
C      -1.166261   -0.884683   -0.683209
O      -1.925252   -1.775381   -1.327544
C      -2.626036   -2.791355   -0.577984
C      -1.783108   -4.017762   -0.242361
N      -0.994787   -3.843582    0.962574
C      -0.711091   -4.879952    1.785496
O      -1.031693   -6.036923    1.592701
H       0.886787   -0.251391    1.488029
H       0.216014    0.912400    0.319862
H      -0.576922    0.644092    1.890012
H      -0.849897   -0.098179   -1.377528
H      -3.046212   -2.345349    0.328819
H      -3.436518   -3.084528   -1.248442
H      -2.444738   -4.874912   -0.081389
H      -1.154317   -4.261760   -1.109931
H      -0.737863   -2.891528    1.201581
H      -0.142585   -4.552807    2.679069
