19

C       0.033461    1.592080   -0.171688
C       0.048934    0.107320    0.060131
O       0.541082   -0.566571   -1.138356
C       0.522808   -1.981713   -0.828585
C      -0.009399   -1.882584    0.583396
C      -0.476153   -2.447233    1.941758
C      -0.628179   -0.894928    2.064405
C       0.675699   -0.638115    1.250620
C      -1.106495   -0.760260    0.587456
H       1.039682    1.957420   -0.398964
H      -0.616073    1.843861   -1.015678
H      -0.333515    2.112115    0.717827
H      -0.137034   -2.508458   -1.527581
H       1.535603   -2.393819   -0.905171
H      -1.398628   -3.036001    1.942212
H       0.285579   -2.920571    2.568912
H      -0.987035   -0.330478    2.924834
H       1.701567   -0.622498    1.622267
H      -2.119241   -0.884363    0.200527
