17

C      -0.013168    1.493102   -0.135983
O       1.379665    1.604895    0.243428
C       1.428633    0.202346    0.604759
C       1.221733    0.056653    2.106282
C       0.014617   -0.448804    2.334925
C      -1.270638   -0.219810    3.089822
O      -1.936045   -0.064033    1.793460
C      -0.799285   -0.706714    1.109051
C       0.005761   -0.044225   -0.011556
H      -0.682583    1.986858    0.577104
H      -0.186822    1.891997   -1.139947
H       2.311448   -0.283419    0.176760
H       1.894713    0.521378    2.816880
H      -1.676405   -1.082133    3.634291
H      -1.337012    0.678617    3.710882
H      -1.069503   -1.744992    0.878124
H      -0.025443   -0.571081   -0.965037
