16

C      -0.028371    1.374866    0.053003
O       0.010132   -0.051915    0.051885
C       0.636467   -0.599845    1.101330
N       1.205889    0.026038    2.108493
C       1.696153   -0.984564    2.902550
O       2.358940   -0.712191    4.053336
C       1.431223   -2.222815    2.389247
N       1.690120   -3.550406    2.771024
N       0.729275   -1.940081    1.197381
H       0.983413    1.791212    0.043075
H      -0.564368    1.657420   -0.853644
H      -0.552139    1.749074    0.937751
H       2.377234    0.248764    4.130049
H       1.270454   -3.782464    3.665099
H       2.683587   -3.743493    2.842277
H       0.372444   -2.624065    0.552475
