18

C       0.042068   -1.213203   -0.192188
C      -0.023540   -0.019208   -0.065560
C      -0.067469    1.408980    0.085563
N      -1.179945    2.013704    0.076222
C      -1.271608    3.466707    0.083113
C      -0.616809    4.193705    1.266992
C       0.911785    4.174748    1.222126
C       1.498687    2.772017    1.301790
O       1.195180    1.942682    0.170307
H       0.087119   -2.268270   -0.305996
H      -0.836611    3.851068   -0.852597
H      -2.336854    3.714950    0.060405
H      -0.968770    5.231783    1.262042
H      -0.972939    3.744638    2.203092
H       1.265079    4.653715    0.300139
H       1.320876    4.754623    2.058916
H       2.590749    2.812873    1.322689
H       1.159277    2.265132    2.215271
