17

O      -0.304787    0.057242    0.020051
C      -0.065761    1.225091    0.170350
C       1.285912    1.898958   -0.021221
O       2.368276    0.991140   -0.122517
C       2.849144    1.039952   -1.463803
C       1.766794    0.564845   -2.482667
C       1.371760    2.037379   -2.650644
C       2.653634    2.493814   -1.964600
C       1.335148    2.746493   -1.302822
H      -0.862236    1.947566    0.471937
H       1.439531    2.546718    0.857234
H       3.830399    0.570248   -1.491521
H       2.226919    0.180817   -3.397686
H       1.032357   -0.147627   -2.103194
H       0.878843    2.475659   -3.510495
H       3.391991    3.241399   -2.219748
H       0.929989    3.750689   -1.284408
