19

C      -0.356490    1.522153    0.044464
C      -0.015326    0.038990   -0.004868
C       0.693113   -0.579064   -1.217853
C       2.144010   -0.163033   -1.370063
C       2.723243    1.124932   -1.085842
C       3.270925    2.179182   -0.883840
C       1.772399   -1.195749   -0.325459
C       1.129716   -0.554679    0.914982
O       1.889729    0.287706    1.736472
H       0.506810    2.155893   -0.162743
H      -1.131646    1.762555   -0.691425
H      -0.740178    1.788179    1.034837
H      -0.926300   -0.537530    0.189942
H       0.189931   -1.035054   -2.062865
H       2.596590   -0.627472   -2.244257
H       3.737768    3.117092   -0.708428
H       2.215461   -2.184188   -0.364089
H       0.720306   -1.320171    1.578977
H       2.360230    0.916492    1.175050
