20

O      -0.048601   -0.071273   -0.092484
C       0.077999    1.163507   -0.064030
O       1.063565    1.917924   -0.096886
C      -1.316830    1.943847    0.025611
C      -2.379260    1.090233    0.715630
C      -3.709260    1.818469    0.827428
N      -3.477468    3.153262    1.531962
H      -4.361662    3.648330    1.653679
H      -3.112996    2.948847    2.466385
C      -2.460275    4.048790    0.828243
C      -1.144491    3.295261    0.716746
H      -1.637555    2.124187   -1.012662
H      -2.497666    0.154579    0.165627
H      -2.038378    0.799214    1.719424
H      -4.130527    2.071377   -0.149611
H      -4.466325    1.294147    1.419738
H      -2.895640    4.276257   -0.148869
H      -2.409099    4.967960    1.421035
H      -0.719156    3.155985    1.720878
H      -0.407878    3.884883    0.167438
