14

O       0.030122    0.017060    0.144950
C      -0.008155    1.211618    0.035740
C      -1.264315    2.106807    0.008631
C      -0.738863    3.460381   -0.435766
C       0.439231    4.031601    0.321228
O       1.070155    3.013871    1.104653
C       1.176988    2.176629   -0.097464
C       0.682801    3.332387   -0.983705
H      -1.982767    1.696380   -0.707665
H      -1.741071    2.106386    0.993608
H      -1.399650    4.172469   -0.916362
H       0.543528    5.059872    0.646067
H       2.163885    1.734143   -0.218609
H       1.048383    3.660261   -1.945749
