18

C       0.084488    1.469046    0.022851
C      -0.008437   -0.019737   -0.037024
C      -0.165356   -0.794563   -1.114147
C      -0.108882   -2.241655   -0.764129
N       1.212395   -2.627458   -0.184783
C       0.084426   -2.308233    0.706575
C       0.089081   -0.869684    1.243253
C       1.232290   -0.545678    2.090510
C       2.161083   -0.265039    2.799993
H       1.045271    1.780353    0.448604
H      -0.016364    1.915244   -0.969769
H      -0.695024    1.890251    0.671216
H      -0.273078   -0.429578   -2.129085
H      -0.676610   -2.983665   -1.315182
H       1.305786   -3.641616   -0.220675
H      -0.342391   -3.092724    1.321077
H      -0.825509   -0.713608    1.837125
H       2.990768   -0.029876    3.419228
