15

O      -0.004485    1.375613   -0.037518
C       0.066480    0.000375   -0.044239
C       0.789446   -0.851095   -1.083621
C      -0.222817   -2.012557   -0.744153
C      -1.108021   -0.977259   -0.005319
C      -0.229546   -0.829645    1.195175
O       0.510485   -2.009770    1.465746
C       0.424780   -2.830034    0.363810
O       0.870239   -3.937560    0.347168
H       0.743920    1.722894    0.461462
H       0.595760   -0.471283   -2.088429
H       1.858940   -1.050466   -0.959439
H      -0.610140   -2.604284   -1.567174
H      -2.180120   -0.844707   -0.049093
H      -0.566670   -0.322937    2.089344
