18

N      -0.188995    0.403824    1.055480
C      -0.037669   -0.036476   -0.227728
O       0.866210    0.332927   -0.952477
C      -1.111886   -1.027453   -0.688528
C      -0.951368   -2.400512   -0.059763
C      -1.439782   -2.713958    1.335366
O      -2.139592   -1.674598    1.992014
C      -2.150484   -3.315058    0.146134
O      -3.435647   -2.857388   -0.137369
H       0.544913    0.975714    1.440268
H      -0.860481   -0.023140    1.675265
H      -2.105617   -0.627149   -0.471985
H      -1.016213   -1.113253   -1.772724
H      -0.024156   -2.901864   -0.324913
H      -0.820107   -3.321725    1.990076
H      -2.598644   -2.051336    2.750641
H      -2.042976   -4.373798   -0.068525
H      -3.635435   -2.172224    0.514290
