19

C       0.334171    0.554028   -1.342231
C       0.037497    0.048765    0.085357
C       0.163458    1.142533    1.057905
N       0.266677    2.010676    1.813723
C      -1.355912   -0.569305    0.153643
C      -1.656510   -1.994114   -0.098123
C      -0.584657   -2.937493    0.445128
C      -0.780211   -2.226710    1.807532
N      -1.893778   -1.358997    1.273879
H       1.330456    0.998395   -1.399498
H       0.280468   -0.281617   -2.044939
H      -0.395226    1.309933   -1.645728
H       0.794128   -0.696930    0.347142
H      -2.120095    0.119949   -0.201570
H      -2.483337   -2.295994   -0.733868
H      -0.915130   -3.976969    0.466365
H       0.400466   -2.901955   -0.031482
H      -1.182267   -2.878927    2.583888
H       0.062630   -1.669676    2.227350
