20

C       0.018554    1.544679   -0.033536
C       0.021178    0.018950    0.043517
O       0.690231   -0.437353    1.220468
C      -1.391623   -0.573939   -0.048390
C      -1.386526   -2.103551   -0.125367
C      -2.797149   -2.750761   -0.062105
O      -2.873934   -3.564175   -1.259016
C      -1.714900   -3.330779   -1.920020
N      -0.837939   -2.568379   -1.419267
H       1.036888    1.929809    0.067144
H      -0.392763    1.894103   -0.985912
H      -0.592027    1.976620    0.770550
H       0.614973   -0.387847   -0.781465
H       0.266870   -0.015513    1.976899
H      -1.968370   -0.257138    0.833678
H      -1.908404   -0.171360   -0.928561
H      -0.738504   -2.476736    0.674404
H      -2.946469   -3.402687    0.801893
H      -3.608449   -2.015692   -0.099285
H      -1.634517   -3.846776   -2.870726
