22

C      -0.049962    1.531601   -0.192920
C       0.051535    0.036871    0.017417
O      -1.028110   -0.678692   -0.535424
C       1.395686   -0.654616    0.025806
C       0.556509   -0.572785    1.292075
C       0.989221    0.236081    2.493577
N       1.737695   -0.598435    3.430626
C       3.182735   -0.656039    3.244753
C       2.590787    0.101422    4.382446
H       0.786219    2.069137    0.261375
H      -0.046060    1.766126   -1.264955
H      -0.982948    1.917369    0.230584
H      -0.978668   -0.586625   -1.493823
H       1.468126   -1.616726   -0.468784
H       2.287682   -0.038261   -0.037772
H       0.046966   -1.494066    1.557075
H       1.574762    1.118739    2.177563
H       0.107365    0.612647    3.027597
H       3.644723   -1.626140    3.403800
H       3.618603   -0.072229    2.435442
H       2.633296    1.188744    4.328667
H       2.609674   -0.304224    5.390069
