13

C       0.040697    1.467109   -0.050812
C      -0.057499   -0.013754    0.004400
N      -1.099861   -0.759921   -0.162420
C      -0.630557   -2.070716   -0.004575
C       0.704253   -2.018834    0.254458
O       1.084948   -0.712805    0.263455
C      -1.460239   -3.210346   -0.109940
C      -2.158716   -4.186161   -0.197817
H       0.739336    1.785296   -0.831246
H      -0.945865    1.878067   -0.264590
H       0.400375    1.872369    0.900408
H       1.465132   -2.756162    0.440648
H      -2.779839   -5.043701   -0.276475
