20

C       1.079427    0.921951    0.166761
N       0.869192   -0.381337   -0.430027
C      -0.131602   -0.624951   -1.320181
O      -0.945676    0.208358   -1.676848
C      -0.185716   -2.077595   -1.820117
C       1.141508   -2.610172   -2.311380
O       2.180666   -2.805809   -1.332546
C       1.669917   -3.956710   -2.023323
C       0.972725   -5.011376   -1.204957
H       1.014005    0.874778    1.259707
H       2.058597    1.332931   -0.104623
H       0.298618    1.584271   -0.208712
H       1.517185   -1.130097   -0.234643
H      -0.574165   -2.700042   -1.008340
H      -0.914504   -2.098021   -2.633885
H       1.503544   -2.126084   -3.220112
H       2.377785   -4.355836   -2.752578
H       0.277805   -4.580587   -0.481763
H       0.419578   -5.693491   -1.859409
H       1.709837   -5.602921   -0.652345
