15

C       0.060070    1.375263   -0.073037
N       0.067972   -0.062879    0.018673
N      -0.015447   -0.827140   -1.117798
C       0.024236   -2.069981   -0.668621
O      -0.021433   -3.124846   -1.510898
C       0.106507   -2.152962    0.736131
C       0.123893   -0.826802    1.137201
N       0.260710   -0.244066    2.401842
H       0.607959    1.790394    0.776605
H       0.557200    1.664683   -1.000210
H      -0.957983    1.785830   -0.080569
H      -0.077942   -2.762760   -2.404196
H       0.135974   -3.034088    1.354255
H       0.327611   -0.947994    3.124823
H      -0.491000    0.395153    2.634417
