15

C       0.012826    1.378725    0.007076
O      -0.045684   -0.050958    0.003833
C      -1.251883   -0.607427    0.011209
N      -2.318315    0.137782    0.020856
C      -3.552397   -0.486040    0.027878
N      -4.705922    0.053913    0.037617
N      -3.501610   -1.900824    0.023570
C      -2.332682   -2.560928    0.013368
N      -1.171120   -1.984735    0.006686
H       1.075253    1.622734   -0.000646
H      -0.483857    1.788445   -0.875848
H      -0.469833    1.783808    0.899875
H      -4.595782    1.066523    0.039666
H      -4.389206   -2.382014    0.028580
H      -2.391584   -3.647097    0.010756
