15

C      -0.011974    1.532186   -0.011978
C      -0.009776    0.030772    0.004115
C      -1.141451   -0.697795   -0.103034
F      -2.331392   -0.115878   -0.230126
C      -1.172458   -2.153931   -0.091507
N      -2.237016   -2.833761   -0.193499
O       0.071106   -2.764345    0.043105
C       1.211109   -2.041225    0.150350
C       1.230671   -0.701806    0.137389
H       0.600256    1.909499   -0.838998
H      -1.022678    1.925775   -0.119993
H       0.420404    1.927977    0.914025
H      -2.029900   -3.831914   -0.161842
H       2.078116   -2.681834    0.245351
H       2.171689   -0.174521    0.226522
