16

C       0.006379    1.455544    0.000616
C       0.011966    0.001213   -0.001467
C       0.016660   -1.205886   -0.004299
C       0.003829   -2.615809   -0.014112
C       0.811844   -3.627393    0.847096
C      -0.343678   -4.643417    0.691433
C      -1.116656   -3.691849   -0.145024
N      -0.179680   -4.664985   -0.806252
C       0.937250   -3.638112   -0.647364
H       0.580357    1.861462   -0.840170
H      -1.015738    1.842044   -0.081790
H       0.437094    1.858724    0.924278
H       1.524252   -3.405160    1.628016
H      -0.644760   -5.517111    1.256127
H      -2.168065   -3.628136   -0.397619
H       1.773855   -3.513153   -1.322857
