19

C      -0.053992    1.450581   -0.055051
C      -0.026210   -0.040610    0.025161
C      -1.023131   -0.907161    0.175591
C      -2.513145   -0.913710   -0.026416
C      -2.658679   -2.210777   -0.820735
C      -1.549197   -2.956368   -0.810777
C      -0.495891   -2.317929    0.068693
O       0.834350   -2.185225   -0.426404
C       1.250484   -0.842055   -0.172365
H       0.520410    1.905424    0.762251
H       0.397158    1.806889   -0.989817
H      -1.075035    1.836987    0.003318
H      -3.081449   -0.968116    0.914073
H      -2.883513   -0.033690   -0.564673
H      -3.589839   -2.481375   -1.307254
H      -1.431398   -3.926308   -1.278984
H      -0.456979   -2.848827    1.039405
H       1.828261   -0.480047   -1.034367
H       1.917873   -0.801825    0.706898
