14

O      -0.066588   -0.124937   -0.129177
C       0.007053    1.075114   -0.115396
C       1.301456    1.861554   -0.134243
C       1.329917    2.884755   -1.279881
C       2.599774    3.757421   -1.233530
C       2.640577    4.739441   -2.314946
N       2.653877    5.509971   -3.175778
H      -0.911497    1.707408   -0.087048
H       1.375905    2.392101    0.826802
H       2.135550    1.156471   -0.197569
H       1.283924    2.368165   -2.244122
H       0.447900    3.532788   -1.227890
H       2.659436    4.289813   -0.276956
H       3.495104    3.128581   -1.299206
