22

O       0.029543    0.007044   -0.028294
C      -0.035438    1.220940    0.063144
C      -1.379750    1.944273    0.059136
C      -1.867205    2.344623   -1.349813
C      -1.156371    3.525886   -2.034937
C       0.319544    3.287058   -2.429974
C       1.373083    3.852311   -1.463553
C       1.215129    3.416397    0.002687
N       1.099183    1.981412    0.191760
H      -2.084778    1.220804    0.475271
H      -1.378070    2.817608    0.719902
H      -1.802350    1.461113   -1.997208
H      -2.933189    2.588165   -1.270993
H      -1.726824    3.754989   -2.942127
H      -1.237151    4.423213   -1.405721
H       0.486809    2.211595   -2.564150
H       0.506928    3.737101   -3.411042
H       2.369169    3.560465   -1.820510
H       1.347538    4.950100   -1.487688
H       2.073507    3.770075    0.584246
H       0.336589    3.896211    0.441092
H       1.943959    1.431736    0.109039
