19

O       0.004780    1.398848   -0.246388
C       0.047036    0.022090    0.086373
C      -1.345255   -0.567071    0.152070
C      -1.583159   -2.093082    0.119745
C      -2.745672   -1.665445   -0.798121
C      -3.945068   -1.229928    0.034965
O      -3.506990   -0.656016    1.261399
C      -2.287400    0.079892    1.169738
O      -2.020919   -0.447895   -1.149939
H      -0.481058    1.463031   -1.077354
H       0.639726   -0.551541   -0.642590
H       0.541859   -0.054460    1.060920
H      -0.797067   -2.617619   -0.425699
H      -1.822537   -2.598115    1.055971
H      -3.013958   -2.264433   -1.672044
H      -4.538481   -0.513142   -0.553199
H      -4.583249   -2.079375    0.303473
H      -1.855750    0.074338    2.176623
H      -2.467498    1.120119    0.868925
