15

O       0.138572   -0.039526   -0.047033
C       0.123441    1.160848   -0.020527
C       1.399953    2.025657   -0.050762
C       1.555060    2.814868    1.312829
N       2.539720    2.063439    2.089762
C       3.031708    1.190711    1.302302
N       2.596175    1.179324   -0.020379
C       1.303175    2.898464   -1.213926
C       1.149469    3.615145   -2.166814
H      -0.818506    1.746377    0.026926
H       1.913752    3.830314    1.116193
H       0.603310    2.897943    1.849304
H       3.804016    0.486739    1.598267
H       2.470424    0.267753   -0.445992
H       1.042843    4.251930   -3.010589
