17

N       0.269753    1.012724    0.533078
C       0.103309   -0.140917    0.071829
O       0.978276   -0.979267   -0.591826
C      -0.045116   -2.037678   -0.684603
C       0.149160   -3.215871    0.246347
C       0.684547   -2.926444    1.603156
N      -0.755611   -3.100487    1.418589
C      -1.521727   -1.839852    1.293606
C      -1.065599   -1.106007    0.014139
H       1.222302    1.345870    0.373733
H      -0.196728   -2.316114   -1.727373
H       0.252454   -4.204149   -0.190253
H       1.170234   -3.718526    2.165939
H       1.079271   -1.931852    1.792230
H      -2.579310   -2.106465    1.211705
H      -1.400203   -1.225674    2.190388
H      -1.897526   -0.736900   -0.586483
