15

C      -0.067851    1.557716   -0.043806
C      -0.014377    0.037916    0.000144
C       1.338658   -0.650645   -0.207814
C       0.707626   -0.637619    1.155048
O       1.216511    0.198378    2.149748
C      -1.175812   -0.636841   -0.516605
C      -2.152421   -1.188644   -0.951891
H       0.807887    1.983974    0.447783
H      -0.105980    1.910168   -1.078730
H      -0.959232    1.924387    0.473559
H       1.362154   -1.578444   -0.767054
H       2.184997    0.010503   -0.363621
H       0.267480   -1.566116    1.515433
H       2.078157   -0.142348    2.411748
H      -3.014885   -1.676095   -1.333489
