20

N      -0.208044    1.175391    0.673317
C       0.025117   -0.028331    0.069316
O       1.117746   -0.329053   -0.372250
C      -1.191821   -0.949174   -0.019263
C      -0.803777   -2.429126   -0.115478
C      -0.210205   -2.944806    1.228958
C      -1.350111   -3.713563    1.850908
C      -2.345627   -3.918725    0.990429
C      -2.052295   -3.324504   -0.366412
H       0.527809    1.862770    0.661886
H      -1.126464    1.456750    0.967732
H      -1.862324   -0.783532    0.833679
H      -1.751384   -0.651502   -0.916746
H      -0.071470   -2.520580   -0.918924
H       0.657782   -3.596528    1.062853
H       0.151235   -2.126218    1.862884
H      -1.323476   -4.073348    2.873991
H      -3.253906   -4.472953    1.201324
H      -2.897451   -2.754671   -0.773438
H      -1.841002   -4.115612   -1.099326
