20

C      -0.336434    1.459448   -0.305102
C      -0.213385   -0.047235   -0.539143
C       1.254054   -0.523283   -0.537347
C       1.388669   -1.956078   -0.772577
C       1.455068   -3.139591   -0.979042
C       1.554629   -4.568151   -1.224251
C       0.649748   -5.067739   -2.370080
N       1.003377   -6.304406   -2.837347
O      -0.310575   -4.459685   -2.784079
H       0.094721    1.749728    0.659810
H       0.185164    2.027064   -1.084038
H      -1.383984    1.775289   -0.309426
H      -0.763335   -0.596272    0.233154
H      -0.671072   -0.322166   -1.495389
H       1.814582    0.029845   -1.303416
H       1.719711   -0.260551    0.422558
H       2.595219   -4.851738   -1.431674
H       1.266647   -5.132824   -0.326009
H       1.880499   -6.734883   -2.602508
H       0.484783   -6.673890   -3.617433
