14

O      -0.014050   -0.063312   -0.353528
C       0.017402    1.115088   -0.056266
N      -1.190611    1.804835    0.113350
C      -1.441298    3.179456    0.147404
N      -0.766559    4.110134    0.675284
C       0.410136    3.769406    1.477093
C       1.478096    3.000264    0.743895
C       1.285890    1.856014    0.082392
H      -1.971231    1.220656   -0.159959
H      -2.376823    3.440224   -0.350667
H       0.829757    4.703554    1.857248
H       0.086605    3.186935    2.354790
H       2.485396    3.408589    0.779068
H       2.120165    1.333629   -0.373281
