16

N      -0.083339   -1.144765   -0.212234
C      -0.024023    0.004717   -0.113486
C       0.007696    1.458922    0.041468
C      -0.625287    1.934786    1.410265
N       0.198574    3.121827    1.635337
C       0.989654    3.570770    2.821105
C       2.229661    3.700216    1.866681
C       1.366690    2.892655    0.919299
N       1.408378    1.985608    0.028852
H      -0.551949    1.899559   -0.794009
H      -1.689668    2.157829    1.320782
H      -0.477591    1.179706    2.194572
H       0.609309    4.480155    3.289164
H       1.120068    2.783519    3.572594
H       2.430065    4.722055    1.541319
H       3.154868    3.219439    2.182268
