25

C      -1.110485   -1.832252    0.290460
C       0.016499   -0.814908    0.077713
C       0.885735   -1.052091   -1.136211
C       0.357102   -1.612687   -2.432093
C       1.471149   -2.339184   -1.730631
C       2.794743   -1.637371   -2.039308
C       2.238009   -0.317396   -1.386809
C       2.193916    0.931133   -2.269042
C       2.980553   -0.011029   -0.083380
H      -1.855942   -1.790792   -0.509346
H      -0.720793   -2.855081    0.334486
H      -1.630053   -1.635080    1.233041
H      -0.420639    0.191985    0.010540
H       0.648229   -0.804085    0.974342
H      -0.618219   -2.083118   -2.370151
H       0.541753   -1.121218   -3.384527
H       1.362006   -3.364060   -1.394809
H       3.652958   -2.036197   -1.492591
H       3.056639   -1.580624   -3.102129
H       1.680684    0.749508   -3.217255
H       1.675534    1.753075   -1.761234
H       3.207577    1.276944   -2.503482
H       4.008961    0.300811   -0.298354
H       2.499058    0.797900    0.477594
H       3.028260   -0.890031    0.568063
