19

O       0.147260    1.443444    0.075056
C       0.089365    0.026601    0.066824
C      -1.354670   -0.500466    0.023867
C      -2.068944   -0.089647   -1.280693
C      -2.279174    1.403602   -1.404174
O      -1.812864    2.090020   -2.280665
C      -1.393861   -2.039877    0.185311
C      -0.864309   -2.509766    1.460124
C      -0.434553   -2.882274    2.519111
H       0.115057    1.763923   -0.831670
H       0.663198   -0.397301   -0.771974
H       0.564785   -0.313728    0.991327
H      -1.887387   -0.054249    0.873124
H      -1.514124   -0.435800   -2.160033
H      -3.065570   -0.553432   -1.300926
H      -2.929710    1.844810   -0.616221
H      -2.430062   -2.384164    0.078031
H      -0.834957   -2.505038   -0.638575
H      -0.054152   -3.219409    3.451460
