13

N       0.014933    1.351380    0.120344
C      -0.045647   -0.006480    0.030506
N      -1.182360   -0.612559    0.021513
C      -1.203194   -1.981356    0.001121
N      -2.259323   -2.669003    0.015285
O       0.050721   -2.675756   -0.053213
C       1.244725   -2.055690   -0.031995
O       2.286377   -2.646150   -0.036618
N       1.164431   -0.666881   -0.006104
H       0.814669    1.834259   -0.256384
H      -0.874522    1.811688   -0.000408
H      -2.035709   -3.662529   -0.012174
H       2.045620   -0.186695    0.091087
