21

O       0.283524    1.313289    0.086560
C       0.098137   -0.078603   -0.060872
C      -1.380591   -0.509388    0.013122
C      -2.158053   -0.068860   -1.229612
O      -2.081139    1.352646   -1.356512
C      -1.527569   -2.033178    0.190229
C      -1.095288   -2.535648    1.547821
C      -0.580755   -3.895974    1.748414
O       0.301140   -2.772472    1.750977
H      -0.348720    1.734522   -0.510090
H       0.520563   -0.448890   -1.014285
H       0.665723   -0.558702    0.740219
H      -1.825344   -0.004272    0.881665
H      -1.729874   -0.558989   -2.118644
H      -3.209248   -0.385686   -1.149169
H      -2.421085    1.604490   -2.219844
H      -2.579460   -2.316327    0.045616
H      -0.949424   -2.560853   -0.579063
H      -1.582750   -2.051866    2.396952
H      -0.710609   -4.391728    2.709328
H      -0.484276   -4.563149    0.892400
