16

C       0.043070    1.533762    0.012017
C      -0.051924    0.039634    0.075056
C      -1.345764   -0.790585    0.011703
C      -0.683079   -1.815906    0.999579
O      -0.440085   -3.127632    0.533848
C       0.580366   -0.957337    1.013661
N       1.086119   -0.770830   -0.343145
H       1.061096    1.859820    0.240055
H      -0.209742    1.899363   -0.990501
H      -0.645360    2.004366    0.722255
H      -2.216520   -0.293198    0.448051
H      -1.610988   -1.177995   -0.978324
H      -1.192684   -1.824193    1.972293
H      -1.287069   -3.572503    0.428071
H       1.262876   -0.823962    1.845521
H       0.831177   -1.553076   -0.944019
