25

C       0.046227    1.564419    0.076198
C       0.031078    0.042522    0.044095
C       0.621623   -0.527900   -1.252756
C       0.746300   -2.070956   -1.248499
C      -0.636808   -2.735598   -1.394645
C       1.623930   -2.512703   -2.430369
C       1.421883   -2.486364    0.079902
C       0.784318   -1.813646    1.297059
O       0.776901   -0.402833    1.172687
H       1.070919    1.937136   -0.020035
H      -0.551200    1.973882   -0.743957
H      -0.362461    1.929006    1.022467
H      -1.011988   -0.304526    0.152712
H       0.014994   -0.202007   -2.107354
H       1.620146   -0.090198   -1.383637
H      -1.110611   -2.436693   -2.336326
H      -0.541124   -3.827060   -1.402722
H      -1.322813   -2.472190   -0.585198
H       2.623003   -2.067646   -2.370198
H       1.742363   -3.602197   -2.447932
H       1.179675   -2.210786   -3.385863
H       1.390618   -3.576745    0.200018
H       2.479602   -2.196563    0.047189
H      -0.242803   -2.184409    1.454332
H       1.354506   -2.037179    2.204099
