22

C       0.019280    1.537684   -0.039022
C      -0.019085    0.008070   -0.038760
C      -1.463847   -0.497228    0.099236
C       0.586679   -0.546434   -1.344113
O       0.735351   -1.952332   -1.274561
C       1.742817   -2.317314   -0.346563
C       1.558535   -1.667138    1.026514
C       2.142827   -0.317552    1.278601
N       0.700632   -0.483061    1.158986
H       1.042364    1.914335   -0.138990
H      -0.571074    1.939277   -0.869017
H      -0.394821    1.925193    0.896314
H      -2.092175   -0.106163   -0.708074
H      -1.488782   -1.588721    0.052298
H      -1.883330   -0.179705    1.056906
H      -0.083301   -0.343249   -2.185052
H       1.556785   -0.069148   -1.566716
H       1.687019   -3.404845   -0.253494
H       2.732999   -2.066659   -0.762773
H       1.474598   -2.363155    1.858732
H       2.496597   -0.037371    2.267785
H       2.702241    0.132393    0.459755
