17

C      -0.125594    1.509185   -0.393872
C      -0.015427    0.031182   -0.094104
C       0.902192   -0.820344   -0.890800
N       1.200264   -0.507876    0.520873
C      -1.289655   -0.633292    0.472365
C      -1.755669    0.006056    1.704652
C      -2.116645    0.535810    2.719196
C      -2.353545   -0.657432   -0.547337
N      -3.165506   -0.675618   -1.368441
H       0.809165    1.883275   -0.821555
H      -0.928041    1.705682   -1.112227
H      -0.342729    2.074801    0.517460
H       0.661558   -1.861612   -1.087767
H       1.481865   -0.336821   -1.672182
H       1.911703    0.215733    0.585630
H      -1.025604   -1.673794    0.698055
H      -2.443919    0.996752    3.618658
