17

O      -0.895836    1.193139   -0.109318
C       0.259406    0.889529   -0.293684
C       1.413086    1.785414    0.050625
N       2.569079    1.330686   -0.256384
C       3.781603    2.105071   -0.101313
C       3.994043    2.798738    1.268233
C       3.041720    3.920572    1.558445
C       1.738474    3.948090    1.262831
N       0.996968    2.964543    0.617323
H       0.577052   -0.067866   -0.744976
H       4.622911    1.428034   -0.284602
H       3.820060    2.872181   -0.886598
H       3.934841    2.026796    2.046546
H       5.022064    3.177754    1.301182
H       3.442753    4.805457    2.041168
H       1.133889    4.806810    1.535371
H      -0.012748    3.029011    0.664067
