19

C      -0.267223    1.503361   -0.079245
C       0.103414    0.039862   -0.011808
O       1.368684   -0.240916   -0.728121
C       1.933093   -0.783076    0.388019
O       3.004320   -1.301328    0.496298
C       0.714711   -0.566263    1.284731
C       0.926332    0.338498    2.495225
C       0.142589   -1.937222    1.698975
O       1.024499   -2.625534    2.559075
H       0.531627    2.140282    0.307548
H      -0.464346    1.792089   -1.115618
H      -1.175138    1.689581    0.503586
H      -0.681129   -0.584516   -0.451154
H       1.493413    1.240116    2.251996
H      -0.037754    0.641569    2.917810
H       1.472093   -0.215346    3.261955
H      -0.792622   -1.799875    2.253815
H      -0.089165   -2.527556    0.797742
H       1.875242   -2.697464    2.106102
