17

C      -0.000602    1.549734    0.036709
C       0.006063    0.043751   -0.058409
C       0.731289   -0.684931   -1.230647
C       1.095935   -1.666722   -0.091931
O       0.949834   -0.587593    0.871460
C      -0.052773   -2.660426    0.137470
O       0.087173   -3.862727    0.149818
C      -1.355794   -1.958123    0.293800
C      -1.344045   -0.625684    0.157729
H       1.007953    1.944589   -0.106539
H      -0.658661    1.979158   -0.726167
H      -0.360983    1.870518    1.019608
H       0.134246   -1.040953   -2.071413
H       1.606484   -0.130785   -1.576449
H       2.071638   -2.153817   -0.064420
H      -2.247976   -2.549703    0.467000
H      -2.245623   -0.020854    0.191629
