21

C      -0.317778    1.536487   -0.099529
C       0.033315    0.053474   -0.048232
O      -1.168847   -0.733036   -0.026006
C       0.933967   -0.418665   -1.207097
C       1.492675   -1.756570   -0.711402
C       1.874262   -1.445370    0.745325
C       0.801490   -0.420643    1.244551
C       1.385273    0.642489    2.048634
C       1.891693    1.502883    2.719811
H       0.576860    2.162004   -0.056954
H      -0.848424    1.763916   -1.032299
H      -0.965821    1.807177    0.738316
H      -1.672073   -0.516079   -0.818538
H       0.377204   -0.487095   -2.148101
H       1.748231    0.301527   -1.356994
H       0.703938   -2.514108   -0.746656
H       2.339214   -2.120567   -1.299582
H       1.914177   -2.331237    1.383365
H       2.861189   -0.974469    0.780844
H       0.049254   -0.936461    1.849300
H       2.329575    2.263034    3.317782
