18

C      -0.565912    1.427937   -0.025742
C       0.073176    0.064359   -0.125814
O       1.280179    0.045932   -0.942578
C       2.021820   -0.649646    0.063309
C       2.835286    0.256861    1.009290
N       1.617470    0.512291    1.834796
C       0.851180   -0.503245    1.096378
C       0.286964   -1.632511    1.884762
O       0.479014   -1.779083    3.068714
H      -0.782031    1.808926   -1.028509
H      -1.509002    1.365876    0.527886
H       0.101241    2.120628    0.490811
H      -0.635049   -0.681012   -0.518175
H       2.458191   -1.586093   -0.291833
H       3.625679   -0.291818    1.535678
H       3.257563    1.152731    0.544837
H       1.716484    0.244428    2.809156
H      -0.325244   -2.356165    1.302641
