19

C      -0.038493    1.440500    0.046565
C      -0.010682   -0.073561    0.018116
C      -1.263401   -0.679348   -0.580749
O      -1.273927   -2.099682   -0.624827
C      -0.139197   -2.725954   -0.114237
C       1.269035   -2.244902   -0.296907
C       0.619021   -2.283115    1.101060
C       0.704883   -0.737261    1.171317
C       1.345722   -0.699575   -0.207069
H       0.880304    1.842749    0.484892
H      -0.135362    1.852383   -0.964616
H      -0.882372    1.808479    0.641528
H      -2.139769   -0.348925   -0.001818
H      -1.393426   -0.304684   -1.607912
H      -0.267128   -3.800482   -0.203077
H       2.060951   -2.860404   -0.705666
H       0.830029   -2.932809    1.941556
H       0.987534   -0.193826    2.064056
H       2.198741   -0.122577   -0.541176
