14

O       0.175296    1.447159    0.091435
C       0.051651    0.063224    0.036161
C      -0.086935   -0.684874    1.383251
C      -1.524714   -0.119414    1.526976
C      -1.369057   -0.630870    0.067448
N      -0.710720   -1.865051    0.650820
C      -2.349996   -0.684232   -0.986488
N      -3.112036   -0.690472   -1.856420
H       0.143542    1.800999   -0.803709
H       0.742001   -0.400868   -0.682199
H       0.665221   -0.826225    2.157054
H      -2.200665   -0.709103    2.144484
H      -1.622286    0.956054    1.654105
H      -0.040453   -2.246665   -0.027498
