17

C      -0.180111    1.492541   -0.058794
C       0.080172    0.003777    0.082492
O       0.987150   -0.473508   -0.957340
C       2.122341   -1.078810   -0.261784
C       1.528036   -1.861278    0.913367
C       2.328186   -1.188825    2.050185
O       1.113823   -0.541127    2.672128
C       0.946020   -0.451301    1.242562
C       2.445077   -0.149712    0.912416
H       0.747814    2.062678    0.037199
H      -0.615464    1.705929   -1.038786
H      -0.881331    1.830804    0.711107
H      -0.856287   -0.563269    0.016716
H       2.821248   -1.452578   -1.005935
H       0.965848   -2.792188    0.939834
H       3.062833   -1.579991    2.750259
H       2.914922    0.830686    0.940215
