25

C       0.266160    1.797538   -0.166810
C       0.054539    0.279224   -0.159991
C       0.939629   -0.441136   -1.176800
C       2.492704   -0.536340   -0.990563
C       2.415437   -2.043164   -1.268319
C       1.556855   -2.747634   -0.251383
C       1.553678   -2.487576    1.242741
C       0.876849   -1.971899   -1.356992
C      -0.065804   -2.635469   -2.324291
H       1.302577    2.054711    0.078242
H       0.046447    2.223115   -1.152628
H      -0.380571    2.295459    0.562428
H       0.230812   -0.108703    0.848076
H      -0.996642    0.057382   -0.389297
H       0.750230    0.009880   -2.159885
H       3.046318    0.018732   -1.750650
H       2.888026   -0.250153   -0.009627
H       3.104430   -2.585789   -1.906714
H       1.497270   -3.813828   -0.471216
H       1.791855   -1.452984    1.496896
H       0.579686   -2.722423    1.686798
H       2.301082   -3.120712    1.734763
H      -1.096060   -2.634984   -1.946077
H      -0.072091   -2.120949   -3.292890
H       0.214375   -3.679172   -2.502600
