17

C      -0.401146    1.335283   -0.044266
C      -0.036532   -0.113780   -0.083793
N       0.032855   -0.805512   -1.154017
C       0.402402   -2.181711   -0.805812
C       0.490529   -2.194460    0.743176
N       0.300440   -0.760068    1.137679
C      -0.848248   -1.079873    2.051208
C      -0.738027   -2.553030    1.597164
O      -1.362249   -3.546915    1.809436
H       0.437225    1.922305    0.344398
H      -0.658517    1.680401   -1.045323
H      -1.250672    1.511627    0.625004
H      -0.334676   -2.888111   -1.202929
H       1.367583   -2.434714   -1.256619
H       1.415167   -2.639146    1.122089
H      -0.620159   -0.919976    3.109558
H      -1.792827   -0.581633    1.807415
