20

C      -0.058291    1.569978    0.058863
C       0.051701    0.058137   -0.033381
C       1.231042   -0.591384   -0.805135
N       1.258608   -1.711015    0.201519
C       0.604309   -0.757245    1.165826
C       0.271674   -2.718743   -0.197112
C      -1.106162   -2.147900   -0.587398
O      -2.016138   -2.859525   -0.936742
C      -1.244521   -0.621335   -0.502728
H       0.884348    2.014044    0.396055
H      -0.308150    2.009031   -0.913917
H      -0.842119    1.867761    0.764863
H       1.070931   -0.899397   -1.844383
H       2.157839   -0.012178   -0.741489
H       1.370533   -0.220532    1.734441
H      -0.108111   -1.211424    1.863481
H       0.653813   -3.294514   -1.048520
H       0.123103   -3.434759    0.620011
H      -2.079139   -0.399913    0.175174
H      -1.548694   -0.259299   -1.493468
