19

C       0.079046    1.349412   -0.359376
C       0.112658   -0.081862    0.124458
N       1.424278   -0.744452    0.227928
C       0.627490   -0.534818    1.450445
C       1.231495    0.430123    2.454730
O       2.062204   -0.227045    3.394716
C      -0.034595   -1.760507    2.091796
C       0.932024   -2.799848    2.455075
N       1.691515   -3.639868    2.685913
H       0.944414    1.915325   -0.010566
H       0.087065    1.372779   -1.454117
H      -0.831085    1.855202   -0.019878
H      -0.703355   -0.689484   -0.268306
H       1.379179   -1.713089   -0.080285
H       1.771825    1.220376    1.920217
H       0.435509    0.901494    3.043369
H       2.782931   -0.647210    2.911350
H      -0.589204   -1.466354    2.989397
H      -0.756641   -2.207540    1.399558
