21

C      -0.068870    1.617882   -0.123416
C      -0.007334    0.082007   -0.019934
C       0.716952   -0.505048   -1.209890
C       1.942605   -1.014712   -1.117511
C       2.704525   -1.025863    0.177703
O       2.091336   -0.234916    1.178921
C       0.676950   -0.437151    1.257621
C       0.249839    0.214740    2.567405
O       0.900837   -0.390847    3.667160
H       0.929298    2.046080    0.005011
H      -0.440275    1.920632   -1.107642
H      -0.733960    2.051768    0.629228
H      -1.036967   -0.303397   -0.020034
H       0.199859   -0.484294   -2.166268
H       2.441851   -1.450097   -1.979115
H       2.832398   -2.065649    0.531747
H       3.711338   -0.614469    0.036320
H       0.480238   -1.518496    1.343229
H       0.458081    1.294194    2.527732
H      -0.827530    0.083203    2.714628
H       1.836883   -0.402863    3.433028
