17

N      -0.013444    1.272024   -0.439164
C       0.041332    0.061578   -0.058780
N      -1.124702   -0.668143    0.115257
C      -1.206756   -1.863333    0.948666
C       0.079155   -2.673290    0.717465
C       1.272117   -1.759793    0.937898
O       1.219102   -0.609081    0.085072
C      -1.420650   -1.561624    2.373187
C      -1.607386   -1.298152    3.531284
H       0.928491    1.630226   -0.580404
H      -1.930638   -0.060043    0.129959
H      -2.062486   -2.450589    0.594855
H       0.119878   -3.524206    1.401690
H       0.078148   -3.046497   -0.311053
H       1.312890   -1.432086    1.984867
H       2.213735   -2.256705    0.694725
H      -1.775513   -1.059936    4.552863
