19

C      -0.006988    1.569350   -0.026036
C       0.101054    0.047256    0.009008
C       0.888948   -0.581401   -1.166262
C       1.536163   -1.808400   -0.540690
C       1.427777   -1.790334    0.798666
C       0.773894   -0.525940    1.293884
O       1.729546    0.341883    1.909736
C       2.176238   -2.799661   -1.323265
C       2.707637   -3.617473   -2.031301
H       0.979732    2.036375    0.041236
H      -0.482051    1.904815   -0.953694
H      -0.601895    1.943161    0.812988
H      -0.908533   -0.380929   -0.017471
H       0.244507   -0.844487   -2.010839
H       1.658726    0.093250   -1.565129
H       1.837908   -2.538830    1.466033
H       0.032280   -0.701470    2.079768
H       2.518676    0.342257    1.356412
H       3.180601   -4.347190   -2.640545
