18

O       0.017574   -0.062983   -0.052571
C      -0.034479    1.144193    0.019586
C      -1.320131    1.931984    0.157117
C      -1.077054    3.228949    0.961022
N       0.257121    3.824365    0.806208
C       1.025292    3.505841   -0.474402
C       2.307336    3.846454    0.319238
C       1.423188    2.949675    1.214530
C       1.192016    2.011651   -0.029756
H      -1.632243    2.190635   -0.864407
H      -2.106156    1.303405    0.582421
H      -1.815769    3.987639    0.682760
H      -1.213777    3.038916    2.032039
H       0.707609    3.883562   -1.448070
H       3.241533    3.415968   -0.042994
H       2.398519    4.883678    0.641602
H       1.578191    2.645385    2.251441
H       2.059318    1.456907   -0.395927
