21

O       0.025568    1.443598   -0.147638
C       0.039306    0.028414   -0.005333
C       0.835585   -0.441954    1.217241
C       0.564126   -1.926461    1.471596
O      -0.804964   -2.136191    1.765930
C      -1.672887   -1.843938    0.682730
C      -2.990430   -1.284742    1.262608
C      -2.414939    0.149893    1.087837
C      -1.407489   -0.439502    0.059790
H       0.938510    1.749281   -0.168422
H       0.498864   -0.435505   -0.896621
H       1.908743   -0.273212    1.058762
H       0.534814    0.133933    2.099251
H       0.874118   -2.529193    0.599855
H       1.122121   -2.288777    2.339675
H      -1.716943   -2.701162   -0.004291
H      -3.836873   -1.473470    0.596792
H      -3.236625   -1.625739    2.269788
H      -3.086346    0.929446    0.724937
H      -1.924133    0.505385    1.995691
H      -1.850428   -0.395461   -0.940063
