20

C       0.076340    1.414632   -0.056279
O      -0.039776    0.005589    0.090395
C       0.646234   -0.551097    1.189197
C       0.123502   -0.081086    2.541714
C       0.786797   -2.078314    0.992932
O       2.240689   -1.955180    0.922910
C       2.171715   -0.578203    1.050469
N       3.071138    0.291328    1.037028
C       4.456585   -0.118689    0.841563
H       1.123451    1.735331   -0.024209
H      -0.349623    1.655481   -1.032901
H      -0.488877    1.956554    0.713984
H      -0.960185   -0.225347    2.594743
H       0.594596   -0.644628    3.352085
H       0.348144    0.976283    2.701953
H       0.486232   -2.713160    1.829520
H       0.372386   -2.438407    0.049749
H       4.586105   -1.194711    0.679255
H       4.869767    0.420442   -0.017622
H       5.044021    0.177944    1.717528
