15

C      -0.262789    1.343408   -0.061497
O       0.221127    0.018795    0.111386
C       0.756746   -0.524449   -1.028993
C      -0.071785   -1.005780   -2.205422
C       0.833916   -1.958662   -1.467111
O       2.182723   -1.821486   -1.923996
C       2.231539   -0.451782   -1.435093
H       0.545588    2.040495   -0.322385
H      -1.031225    1.388331   -0.844728
H      -0.699145    1.647862    0.891961
H      -1.125954   -1.118877   -1.969310
H       0.157238   -0.722104   -3.229356
H       0.534190   -2.895764   -1.014162
H       2.529470    0.259644   -2.213765
H       2.900340   -0.373367   -0.570537
