17

C      -0.145310    1.510240   -0.421439
C      -0.021818    0.039849   -0.105563
C       0.962276   -0.806352   -0.790440
O       1.175844   -0.363286    0.556159
C      -1.286237   -0.656609    0.448952
C      -1.770178   -0.007095    1.672358
C      -2.149579    0.525784    2.679115
C      -2.333129   -0.735314   -0.575593
C      -3.169812   -0.801304   -1.434485
H       0.801812    1.893257   -0.807469
H      -0.927846    1.676868   -1.167531
H      -0.407669    2.071009    0.480134
H       0.778008   -1.873354   -0.908883
H       1.619520   -0.364648   -1.537526
H      -0.976901   -1.677600    0.710134
H      -2.489897    0.991393    3.570980
H      -3.918192   -0.861630   -2.185729
