17

O       0.049719    1.420937    0.414906
C      -0.074737    0.100530   -0.028576
C      -0.570481   -0.958786    0.924614
C      -1.468145   -0.431404   -0.185368
C      -2.662862    0.434149    0.151656
N      -3.805673   -0.358505    0.586222
C      -4.997640   -0.376281   -0.066235
O      -5.275085    0.279271   -1.048637
H       0.822002    1.471088    0.987569
H       0.656785   -0.197365   -0.779389
H      -0.172444   -1.965078    0.853808
H      -0.789581   -0.624064    1.934407
H      -1.628240   -1.098561   -1.027466
H      -2.388317    1.161755    0.921439
H      -3.000070    0.991651   -0.725009
H      -3.685314   -0.980924    1.369752
H      -5.713576   -1.073383    0.414563
