16

O      -0.104518    1.434246    0.052037
C      -0.004450    0.060869    0.037183
C      -0.247970   -0.773939   -1.178743
C      -1.144894   -0.960037    0.029843
C      -0.424073   -1.755005    1.131095
O       0.520323   -2.797306    0.692880
C       1.588690   -1.908966    0.768833
N       2.812293   -2.097780    0.570557
C       0.721232   -0.733527    1.171812
H       0.594090    1.797843   -0.504214
H      -0.731576   -0.230088   -1.983985
H       0.432597   -1.556123   -1.498839
H      -2.215829   -0.815264   -0.030850
H      -0.997130   -2.073029    1.999748
H       3.001635   -3.068665    0.313639
H       0.976949   -0.151884    2.053831
