14

N      -0.052079    1.367178   -0.085815
C      -0.002502    0.008846   -0.037833
N      -1.164206   -0.652864   -0.023250
C      -1.079068   -1.983051   -0.016045
C       0.131190   -2.672466   -0.016236
C       0.142576   -4.151098   -0.004534
O       1.127324   -4.848001   -0.001196
N       1.302347   -1.997406   -0.024064
C       1.238356   -0.688043   -0.036176
H       0.769127    1.907657    0.124173
H      -0.947606    1.798164    0.077801
H      -2.021658   -2.526922   -0.005574
H      -0.880129   -4.595331    0.001125
H       2.176500   -0.134779   -0.044867
