15

O       0.212162    0.422754    1.255764
C      -0.003653    1.335618    0.480922
C       1.013311    1.847767   -0.417092
C       1.876438    2.260995   -1.146566
C      -1.333486    1.978775    0.392254
C      -2.367423    1.928145    1.483914
C      -2.701138    1.327580    0.150339
C      -2.867912    2.431435   -0.889247
O      -1.597024    3.038620   -0.522845
H       2.639822    2.626369   -1.789729
H      -2.152936    1.210539    2.267606
H      -2.813046    2.868694    1.795111
H      -2.919856    0.277841    0.012440
H      -2.834731    2.071043   -1.922486
H      -3.708105    3.122588   -0.759089
