19

C      -0.108048    1.615055   -0.010056
C       0.039407    0.102024    0.000853
O      -1.228085   -0.526290   -0.086803
C       1.095903   -0.625302   -0.886433
C       2.435357    0.098330   -0.906518
O       2.709866    0.703157    0.357472
C       2.109731    0.075794    1.491604
C       0.827623   -0.646118    1.104254
O       1.212096   -1.658839    0.130599
H       0.848562    2.123265    0.114142
H      -0.549226    1.942365   -0.960395
H      -0.788250    1.923415    0.789942
H      -1.672174   -0.187855   -0.871825
H       0.791056   -1.013929   -1.863285
H       3.216294   -0.632018   -1.164583
H       2.455339    0.907234   -1.646378
H       2.795448   -0.660587    1.935282
H       1.928205    0.870933    2.223974
H       0.268898   -1.051651    1.951683
