23

C      -0.049658    1.534005    0.063286
C       0.063740    0.006231   -0.046474
C       0.727653   -0.399827   -1.370743
C       0.785438   -0.564461    1.183428
C       0.793057   -2.094653    1.297667
C       1.659312   -2.499410    2.494015
O       2.948210   -1.907094    2.396637
C       2.850803   -0.511977    2.299181
O       2.134741   -0.089364    1.170370
H       0.943390    1.991987    0.083016
H      -0.599738    1.946783   -0.788026
H      -0.574533    1.830037    0.978158
H      -0.950975   -0.415693   -0.022065
H       1.768022   -0.064724   -1.397347
H       0.718029   -1.482887   -1.523710
H       0.200000    0.055003   -2.214987
H       0.288990   -0.161467    2.086185
H      -0.228074   -2.473645    1.420898
H       1.214869   -2.534296    0.389132
H       1.175143   -2.186246    3.435438
H       1.815107   -3.580390    2.537293
H       2.374255   -0.106746    3.213973
H       3.867107   -0.125127    2.199470
