16

O       0.030963   -0.039111    0.002455
C      -0.015648    1.162394    0.009255
C      -1.249560    2.071785    0.031936
C      -0.729090    3.534468    0.031892
C       0.763852    3.365639    0.009125
C       1.930503    4.074481   -0.004380
C       3.002323    3.112537   -0.024967
C       2.459796    1.854764   -0.023498
N       1.089654    2.018910   -0.002509
H      -1.869832    1.837575   -0.837259
H      -1.844310    1.828523    0.916349
H      -1.091074    4.091566   -0.838036
H      -1.065307    4.082414    0.917829
H       2.034104    5.148770   -0.000424
H       4.058173    3.339588   -0.039267
H       2.899117    0.871687   -0.034987
