16

O      -0.156364    1.403555    0.058977
C      -0.126749    0.038452   -0.213616
C      -1.347579   -0.671385    0.344916
O      -2.222988   -0.032517    0.892025
C      -1.402586   -2.159835    0.195568
C      -1.743090   -2.961118    1.444463
N      -2.660344   -2.859935    0.353379
C      -3.928969   -2.277682    0.444307
O      -4.697260   -2.494175    1.342507
H      -1.002076    1.561797    0.507450
H      -0.095688   -0.160926   -1.299893
H       0.775554   -0.436638    0.207333
H      -0.708710   -2.590606   -0.522818
H      -1.258734   -3.922041    1.591125
H      -1.976555   -2.393670    2.341680
H      -4.174472   -1.686017   -0.454445
