18

C      -0.045919    1.531941   -0.031758
C       0.018648    0.022813    0.018094
C      -1.172929   -0.705603    0.688437
C      -1.093097   -2.176158    0.663816
N      -0.276878   -1.452664    1.659482
C       0.922574   -0.824089    0.964466
C       1.585849   -1.535402   -0.244585
C       0.637668   -0.740856   -1.177076
O       0.483316   -0.694949   -2.362235
H       0.923877    1.965439   -0.295499
H      -0.771237    1.856761   -0.785680
H      -0.352668    1.943493    0.935574
H      -2.057350   -0.173531    1.027905
H      -1.908267   -2.719987    1.132131
H      -0.631674   -2.707365   -0.162190
H       1.586189   -0.371285    1.699095
H       2.622697   -1.208855   -0.384231
H       1.562874   -2.626171   -0.308278
