19

C      -0.018509    1.544318   -0.044481
C       1.485227    1.956606    0.002268
C       2.127378    0.839260    0.789759
N       1.418658    0.431734    2.005028
C       1.196074   -0.358934    0.792382
C      -0.046822   -0.014526    0.006533
C       2.374116   -1.261755    0.471131
N       2.958785   -0.771640   -0.803990
C       3.292295   -0.080437    0.468424
H      -0.528722    1.942789    0.835366
H      -0.528623    1.938894   -0.927922
H       1.917610    1.958795   -1.003691
H       1.621401    2.952713    0.434270
H       2.037754   -0.048051    2.652948
H      -0.977603   -0.391141    0.441507
H       0.055656   -0.436805   -0.998503
H       2.561478   -2.275987    0.806371
H       3.744998   -1.383381   -1.034303
H       4.322138   -0.010771    0.801183
