19

C      -0.112385    1.576704    0.036982
C       0.017439    0.063015   -0.103521
C       0.478287   -0.776663   -1.249061
C       1.574741   -0.358270   -2.235041
C       2.738372   -1.251096   -1.659139
C       2.545924   -0.279407   -0.450533
C       2.307424    0.813385   -1.531182
N       1.228825   -0.783787    0.049564
H      -0.206540    2.092365   -0.921930
H      -1.014431    1.800347    0.613721
H       0.730838    2.013465    0.578982
H      -0.780448   -0.438431    0.444108
H      -0.082954   -1.675814   -1.498699
H       1.321587   -0.337758   -3.294821
H       2.526047   -2.305976   -1.471824
H       3.687277   -1.125347   -2.185446
H       3.280034   -0.170436    0.347001
H       3.240521    1.052866   -2.045606
H       1.785145    1.733173   -1.295112
