16

N      -0.320193   -0.416629    1.783157
C      -0.129647    0.158643    0.799431
C       0.141807    0.900073   -0.430371
C       1.292648    1.892686   -0.267603
C       2.674245    1.460359   -0.513361
O       1.944244    2.212896   -1.491401
C       1.009524    3.038513    0.661273
C       1.387034    4.411436    0.314320
O       0.031112    3.968938    0.191775
H       0.382377    0.198836   -1.234791
H      -0.758262    1.450049   -0.727032
H       3.494415    1.992552   -0.035762
H       2.876642    0.423531   -0.775906
H       0.901075    2.761337    1.710433
H       1.572057    5.130273    1.110520
H       1.900734    4.589942   -0.626500
