14

O       0.011021    1.398002   -0.068295
C      -0.040477    0.021573   -0.012426
C      -0.411297   -0.815732   -1.208824
C      -1.309206   -0.794453    0.027947
C      -1.056238   -1.916048    0.997252
O      -1.816250   -2.755148    1.400489
N       0.294819   -1.808836    1.382202
C       0.902634   -0.638268    0.959933
O       1.963308   -0.186759    1.320207
H       0.899030    1.641279    0.230589
H      -0.785805   -0.249537   -2.054444
H       0.140632   -1.716335   -1.455685
H      -2.303887   -0.376053   -0.036793
H       0.717559   -2.442820    2.045006
