16

O      -0.054043    0.413806    1.092501
C       0.011545    1.265586    0.250980
O      -1.084118    1.785436   -0.401729
C      -1.720905    2.817393    0.347929
C      -0.860316    4.022834    0.597151
C       0.436334    4.198100    0.329670
C       1.396492    3.241286   -0.278883
C       2.225541    2.317050    0.589714
N       1.176250    1.809283   -0.264494
H      -2.603500    3.106111   -0.233351
H      -2.082335    2.410122    1.304720
H      -1.400200    4.847553    1.059850
H       0.874328    5.169135    0.553983
H       1.878137    3.604520   -1.186824
H       3.241855    2.071711    0.295817
H       2.029934    2.319279    1.658532
