18

C      -0.386719    1.534567    0.019218
C       0.062852    0.078865    0.033736
O      -1.056616   -0.810591    0.015811
C       1.065731   -0.286967   -1.073495
O       1.775356   -1.435502   -0.626815
C       1.531277   -1.632823    0.763957
C       0.859744   -0.356628    1.278836
O       1.791260    0.674562    1.571408
H       0.456501    2.208328    0.179493
H      -0.851428    1.781534   -0.943039
H      -1.127952    1.703171    0.805157
H      -1.507429   -0.701857   -0.827796
H       0.555829   -0.521881   -2.016960
H       1.762378    0.543502   -1.252109
H       0.872958   -2.498227    0.913236
H       2.485107   -1.827390    1.272052
H       0.188008   -0.550109    2.124889
H       2.427429    0.333256    2.206778
