21

C       0.029154    0.735664   -2.204870
C       0.076755   -0.346340   -1.147709
C       1.300561   -0.607716   -0.285980
C       2.580408    0.190772   -0.408441
C       0.053324   -0.022976    0.323159
C      -0.096557    1.374419    0.959869
C      -0.990196    0.715506    2.029397
O      -1.574886    1.131414    2.986004
C      -0.840390   -0.679633    1.393222
H       0.552736    1.643392   -1.892837
H       0.487709    0.395342   -3.139918
H      -1.005996    1.016812   -2.429069
H      -0.478785   -1.241741   -1.421122
H       1.467498   -1.657422   -0.050669
H       2.391112    1.250762   -0.598339
H       3.171128    0.124645    0.512169
H       3.203936   -0.184769   -1.227335
H       0.814586    1.825671    1.367321
H      -0.615010    2.130886    0.360875
H      -1.785947   -1.106167    1.040099
H      -0.354728   -1.412000    2.047803
