18

C      -0.035355    1.584088   -0.099319
C       0.027429    0.080405    0.063127
C       1.248231   -0.762319   -0.189067
N       2.443903   -0.008581    0.250521
C       1.966726   -0.084668    1.670430
C       1.977470    1.170902    2.425447
N       1.977064    2.149049    3.041404
C       0.619435   -0.690454    1.220076
N      -0.124799   -1.531938    2.081649
H       0.937744    2.043310    0.080911
H      -0.339434    1.836499   -1.120659
H      -0.759869    2.029295    0.589343
H      -0.867717   -0.439484   -0.280677
H       1.310119   -1.554084   -0.926367
H       3.293254   -0.551501    0.137810
H       2.519007   -0.832885    2.250406
H      -1.107705   -1.565204    1.846887
H       0.236113   -2.477461    2.136385
