17

N       0.037398   -1.154906   -0.025541
C      -0.008291   -0.008012    0.109421
C      -0.037993    1.444957    0.274780
C       1.353077    2.065251    0.091368
C       2.001380    2.226059   -1.320690
C       1.027513    3.410946   -1.591638
C       1.521388    3.602456   -0.126516
C       2.947235    3.271172   -0.658235
H      -0.771472    1.854805   -0.425397
H      -0.409311    1.668157    1.282393
H       2.030984    1.644074    0.840858
H       2.279517    1.424833   -2.005727
H       1.370449    4.157017   -2.312772
H      -0.027226    3.183898   -1.756485
H       1.244980    4.396801    0.568836
H       3.669917    2.892285    0.069338
H       3.396836    4.009071   -1.326626
