23

C      -0.112570    1.497023   -0.038920
C       0.049294   -0.017616    0.022366
O       0.726318   -0.403774   -1.168083
C       0.873120   -1.809440   -1.267938
C       1.897968   -2.340223   -0.261246
C       1.723914   -1.681312    1.104618
C       2.268174   -0.288732    1.338488
C       0.777871   -0.504608    1.275311
C      -0.024885   -0.415111    2.557615
H       0.864548    1.987701   -0.013349
H      -0.617157    1.779639   -0.966712
H      -0.706872    1.862064    0.803128
H      -0.953703   -0.484842    0.017056
H      -0.104157   -2.294205   -1.104893
H       1.182312   -2.018045   -2.296548
H       1.781666   -3.426320   -0.174594
H       2.911889   -2.161923   -0.638194
H       1.782422   -2.356384    1.953593
H       2.716155   -0.058677    2.299653
H       2.739814    0.196504    0.489661
H      -0.269676    0.621664    2.814862
H      -0.968100   -0.969059    2.476690
H       0.535581   -0.836347    3.398073
