17

O      -0.284482    1.462766   -0.125925
C      -0.063035    0.074212   -0.045372
C       0.453076   -0.515851    1.321936
C      -0.862099   -1.283686    1.424285
C      -2.045476   -0.365657    1.394338
C      -1.352807   -0.728607    0.097373
O      -0.928592   -2.613662    1.851751
C      -1.342301   -2.838790    3.122747
O      -1.387738   -3.933835    3.593003
H       0.569745    1.904132   -0.170771
H       0.548660   -0.282601   -0.883262
H       1.313294   -1.175479    1.189978
H       0.658530    0.209195    2.115702
H      -3.006061   -0.853199    1.525547
H      -1.983512    0.643862    1.788550
H      -1.882930   -1.225849   -0.704210
H      -1.630209   -1.909159    3.645871
