14

C       0.091597    1.458501    0.033994
C      -0.005789   -0.036339    0.052981
N      -0.144599   -0.627960   -1.082862
O      -0.239612   -2.019605   -1.114336
N      -0.191626   -2.798327    0.021711
C      -0.053296   -2.210663    1.154866
C       0.055402   -0.772655    1.307280
N       0.195637   -0.115911    2.409962
O       0.235696   -0.968025    3.510754
H       1.035780    1.779988    0.484424
H       0.026115    1.821664   -0.991945
H      -0.710452    1.895678    0.636764
H      -0.020913   -2.863856    2.018034
H       0.340861   -0.355579    4.247049
