19

C       0.216643    1.392009   -0.099326
C      -0.033260   -0.082513   -0.087804
C      -0.285391   -0.883039   -1.142524
C      -0.184196   -2.267279   -0.571124
C       0.970496   -2.955433   -0.626276
C       1.546406   -3.134581    0.774932
C       0.581260   -2.285527    1.610855
C      -0.086086   -0.874683    1.214137
C      -0.697312   -2.187659    0.865532
H       1.218438    1.623385    0.285075
H       0.134781    1.806309   -1.107794
H      -0.494152    1.925257    0.545761
H      -0.268812   -0.600377   -2.186844
H       1.620062   -2.962659   -1.496248
H       1.593764   -4.162582    1.168573
H       2.579544   -2.761454    0.770145
H       0.580679   -2.427781    2.688904
H      -0.406595   -0.335409    2.102286
H      -1.680883   -2.539793    1.162601
