16

O      -0.425135    1.447068    0.500361
C      -0.074295    0.106294    0.203041
C       0.452777   -0.556913    1.486222
O      -0.325237   -1.743344    1.699297
C      -1.605977   -1.522512    1.157343
C      -2.483583   -0.753273    2.067800
N      -3.166646   -0.135109    2.765635
C      -1.341318   -0.734317   -0.161377
O      -2.407107    0.032100   -0.640865
H      -0.639598    1.883433   -0.331744
H       0.660726    0.070551   -0.609017
H       1.496543   -0.869411    1.428176
H       0.330537    0.146641    2.319184
H      -2.068849   -2.495799    0.976524
H      -1.101944   -1.464446   -0.937872
H      -2.576126    0.723139    0.014452
