19

C       0.058290    1.523878    0.018340
C      -0.024415    0.009731   -0.030129
O       0.750807   -0.443619   -1.134080
C       0.777255   -1.782682   -1.312511
C       0.177262   -2.780606   -0.601592
O       0.495993   -3.991276   -1.164477
C       1.299803   -3.750329   -2.233596
C       1.769237   -4.935329   -2.998866
C       1.507180   -2.413368   -2.373748
H       1.094902    1.849206    0.142242
H      -0.331596    1.960655   -0.905224
H      -0.528667    1.906567    0.858406
H       0.363247   -0.438801    0.896750
H      -1.064711   -0.327234   -0.151815
H      -0.460241   -2.812901    0.263060
H       2.348296   -5.617483   -2.366025
H       0.928625   -5.505859   -3.409961
H       2.404032   -4.615380   -3.827909
H       2.098968   -1.918778   -3.127125
