19

C       0.157552    1.537339    0.217503
C      -0.019047    0.034598   -0.020457
C       0.667358   -0.460000   -1.307000
O       2.047265   -0.122882   -1.287435
C       2.840581   -1.242099   -1.673365
C       1.885789   -2.402752   -1.690155
C       0.649391   -1.968687   -1.475023
C      -0.016655    0.149383   -2.543042
O       0.555426    0.705189   -3.439651
H       1.218628    1.793304    0.263222
H      -0.293360    2.130149   -0.585692
H      -0.312789    1.837821    1.158132
H       0.400817   -0.534420    0.815796
H      -1.084945   -0.222471   -0.072970
H       3.296051   -1.070988   -2.661163
H       3.658507   -1.369081   -0.950191
H       2.193746   -3.425949   -1.864121
H      -0.259036   -2.555882   -1.443827
H      -1.123954    0.003419   -2.555212
