18

C       0.069998    1.527052   -0.004279
N       0.036151    0.070276    0.062715
C      -0.887809   -0.565234    1.006896
C       0.077336   -1.629429    1.364526
C       1.133550   -0.608135    0.807299
C       1.095925   -0.041302    2.255725
O       1.932623    0.356966    3.020098
C      -0.300147   -0.546668    2.435929
C      -1.085329   -0.681565    3.702179
H       0.907409    1.835567   -0.637677
H      -0.854429    1.883316   -0.469476
H       0.179712    2.020472    0.975686
H      -1.959739   -0.616174    0.849257
H       0.047154   -2.704534    1.440895
H       2.068337   -0.810523    0.289170
H      -1.480041    0.289100    4.020336
H      -1.935686   -1.359407    3.575267
H      -0.457707   -1.067506    4.511880
