15

O       0.976979    1.153313    1.483306
C       0.425517    1.466852    0.442040
N       1.029314    1.479684   -0.767842
C       2.427557    1.075325   -0.936886
C       3.421132    2.059356   -0.404419
C       4.417580    2.812082   -0.982545
N       5.048062    3.531199   -0.012682
N       4.492815    3.266119    1.137822
N       3.518186    2.372983    0.911252
H      -0.637383    1.765864    0.393927
H       0.518918    1.828283   -1.563057
H       2.554950    0.108058   -0.438827
H       2.604823    0.925386   -2.003211
H       4.715090    2.872315   -2.017457
H       2.910174    2.035870    1.648636
