20

C      -0.131524    1.532856    0.180484
C       0.052438    0.049467   -0.047875
C       0.611235   -0.641811   -1.233833
N       1.318622   -0.692927    0.120254
C       2.431479    0.137802   -0.472771
C       1.821253    0.051675   -1.890601
C       2.575603   -0.900960   -2.828314
C       1.525181    1.325510   -2.642969
O       1.989291    2.409577   -2.391382
H       0.615366    2.156667   -0.309093
H      -1.115006    1.839891   -0.191029
H      -0.103205    1.746252    1.254628
H      -0.744179   -0.534607    0.413161
H       0.141098   -1.525577   -1.658512
H       2.536842    1.139357   -0.050952
H       3.379246   -0.393721   -0.370186
H       2.723282   -1.868975   -2.340693
H       2.016415   -1.071547   -3.755485
H       3.556168   -0.492060   -3.092067
H       0.819767    1.187979   -3.497660
