17

O      -0.039721    1.397739   -0.168836
C       0.053682   -0.011437   -0.063676
C       0.613953   -0.513823    1.270257
C      -0.087004   -1.527343    1.789026
C      -1.182045   -1.953289    0.833824
O      -2.501585   -2.137916    1.338444
C      -3.400801   -1.415058    0.487964
C      -2.534507   -0.420581   -0.257786
C      -1.262922   -0.743219   -0.064554
H      -0.636185    1.691347    0.529867
H       0.707286   -0.308589   -0.894669
H       1.499105   -0.059311    1.702338
H       0.131837   -2.046648    2.714885
H      -0.872956   -2.871629    0.301692
H      -3.935534   -2.106477   -0.185038
H      -4.155023   -0.919406    1.113223
H      -2.925270    0.448321   -0.771628
