12

N      -0.159627   -1.056298    0.500026
C      -0.074657    0.043174    0.158414
C       0.023932    1.436947   -0.274531
C       1.432537    2.005051   -0.128415
C       1.626017    3.416654    0.261963
O       1.828832    2.355875    1.191967
C       2.454656    1.365562   -0.940506
N       3.247470    0.863010   -1.613643
H      -0.296193    1.510099   -1.319840
H      -0.657687    2.045308    0.327364
H       2.523526    3.938234   -0.061298
H       0.746481    4.034766    0.433471
