17

C      -0.086537    1.472813    0.006054
C       0.000899   -0.040474    0.034261
O      -1.341469   -0.552749   -0.011368
C      -1.446349   -1.885301    0.007534
N      -0.475756   -2.770063    0.062498
C      -1.122398   -3.985823    0.057408
O      -0.418531   -5.139732    0.106229
C      -2.477133   -3.844182   -0.000318
N      -2.670764   -2.454045   -0.032497
H       0.919148    1.902020    0.039965
H      -0.578738    1.818195   -0.907437
H      -0.650770    1.846939    0.864946
H       0.561614   -0.434323   -0.820550
H       0.490707   -0.405563    0.943637
H       0.510634   -4.883998    0.139579
H      -3.290598   -4.545418   -0.021337
H      -3.545043   -1.960866   -0.076460
