20

C       0.041835    1.495448    0.040744
C      -0.022078    0.011205   -0.073054
C       0.861073   -0.988240   -0.733161
N       0.813181   -0.914998    0.775731
C      -0.338018   -1.927303    0.740944
C      -0.627150   -2.892497    1.836605
C      -1.201282   -0.998737   -0.083720
C      -0.284135   -2.034838   -0.766070
C      -0.627903   -3.141056   -1.707004
H       1.084250    1.818634    0.124776
H      -0.400115    1.980740   -0.836786
H      -0.493722    1.845566    0.930464
H       1.790253   -0.882696   -1.283652
H      -0.851254   -2.367546    2.771993
H      -1.490623   -3.516891    1.583260
H       0.230120   -3.551277    2.015348
H      -2.276340   -0.895572   -0.152166
H      -0.828641   -2.764182   -2.716938
H       0.183266   -3.875357   -1.779592
H      -1.525216   -3.671636   -1.369705
