14

C       0.209651    1.270701    0.312627
O       1.311607    1.882010   -0.346463
C       2.032227    0.872129   -1.002768
C       3.069934    0.047601   -0.200608
O       2.423599   -0.391944    0.994674
C       2.179307   -1.137545   -0.198660
C       1.097392   -0.371839   -1.000717
O      -0.072044    0.040809   -0.343428
H       0.448369    1.093045    1.367185
H      -0.663068    1.926381    0.213361
H       2.389672    1.231600   -1.969931
H       4.151117    0.119140   -0.187897
H       2.411361   -2.195929   -0.184090
H       0.850010   -0.817205   -1.966554
