17

N      -0.091942    1.353058   -0.073273
C      -0.007762   -0.024008   -0.017759
N      -1.075580   -0.811585   -0.023061
N      -0.492225   -2.048207   -0.032631
C       0.848996   -1.948949   -0.018291
C       1.782901   -3.111987   -0.048329
C       2.605465   -3.161304   -1.350526
O       3.488931   -4.266599   -1.380736
N       1.195556   -0.669342   -0.010181
H       0.707064    1.813120    0.337276
H      -0.971594    1.718707    0.260916
H      -1.069565   -2.872008   -0.032684
H       2.471128   -3.035705    0.802413
H       1.231189   -4.051080    0.063604
H       1.933108   -3.286900   -2.205318
H       3.129065   -2.205240   -1.482175
H       4.195413   -4.099844   -0.748775
