17

O      -0.116407    0.492786    0.783015
C       0.519680    0.879163   -0.159187
C       1.480239    2.094970   -0.140901
C       1.527763    2.800653    1.239690
C       3.012099    2.714256    1.636996
C       3.466273    1.460204    0.892701
O       2.781473    1.510298   -0.361745
C       1.144921    2.966619   -1.260188
C       0.803303    3.648044   -2.189685
H       0.524784    0.348989   -1.132962
H       1.158244    3.824045    1.179586
H       0.892102    2.241950    1.931027
H       3.562853    3.585468    1.270097
H       3.158004    2.644834    2.717536
H       4.536127    1.426995    0.673033
H       3.193298    0.549631    1.446894
H       0.521018    4.266005   -3.006466
