18

C      -0.020549    1.638513    0.029714
C      -0.052006    0.112558   -0.014957
C       0.717426   -0.515704   -1.214307
C       1.910989   -0.890578   -0.285227
C       1.008774   -0.559599    0.909854
O       1.032533   -0.810838    2.079789
O      -1.381150   -0.385179    0.074913
C      -2.000485   -0.325608    1.280725
N      -3.218583   -0.645869    1.357422
H       0.996879    2.016268   -0.110902
H      -0.654353    2.037048   -0.768288
H      -0.390036    2.010920    0.989526
H       0.187061   -1.391403   -1.590024
H       0.934775    0.162739   -2.039709
H       2.281590   -1.917283   -0.319665
H       2.766584   -0.211702   -0.356590
H      -1.346029   -0.020433    2.102171
H      -3.530422   -0.575344    2.324135
