23

C      -0.114980    1.524831    0.058014
C      -0.042904    0.007524    0.089139
O      -1.353072   -0.509042   -0.021814
C      -1.403894   -1.916814    0.000636
C      -2.858410   -2.354994   -0.122737
C      -3.021317   -3.868331   -0.087134
C      -2.868708   -4.588070    1.275189
O      -4.191205   -5.152205    1.179629
C      -4.459285   -4.433613   -0.041228
H       0.886860    1.956484    0.141884
H      -0.564397    1.868323   -0.878045
H      -0.724353    1.896740    0.886576
H       0.585120   -0.367251   -0.737445
H       0.424371   -0.338488    1.027191
H      -0.806660   -2.338533   -0.827555
H      -0.963801   -2.302681    0.937676
H      -3.434865   -1.897482    0.690814
H      -3.265266   -1.956117   -1.060046
H      -2.417811   -4.334297   -0.872247
H      -2.095660   -5.362966    1.342239
H      -2.771207   -3.914731    2.138948
H      -5.244022   -3.675910    0.091883
H      -4.749764   -5.104955   -0.858180
