19

C      -0.050138    1.344595    0.014644
O       0.015734   -0.067702    0.092272
C       0.688116   -0.542726    1.189526
C       2.203292   -0.394005    1.552215
C       1.577685   -1.314761    2.635464
C       0.372571   -0.334889    2.708897
C       0.841004   -2.070256    1.471459
C      -0.326755   -2.876566    1.758768
C      -1.282649   -3.570819    1.985029
H       0.950408    1.794086   -0.054117
H      -0.611209    1.586453   -0.890109
H      -0.569074    1.773428    0.882974
H       2.920548   -0.851631    0.865908
H       2.534195    0.588969    1.894161
H       2.089629   -1.784510    3.471087
H       0.585656    0.652271    3.125838
H      -0.571295   -0.741636    3.073583
H       1.511888   -2.582965    0.775041
H      -2.130680   -4.178439    2.182478
