15

N      -0.611343    1.097061    0.248549
C       0.171954   -0.077267   -0.154641
C       1.066466    0.182667   -1.314091
N       1.723742    0.435707   -2.230567
C       0.948276   -0.604781    0.968591
C       1.590466   -1.039066    1.886152
C       2.375234   -1.564815    3.004765
C       1.864523   -2.830870    3.532146
C       1.455252   -3.869481    3.972590
H       0.018561    1.834375    0.551793
H      -1.120890    1.453901   -0.555328
H      -0.542385   -0.847080   -0.476918
H       3.418025   -1.694543    2.684462
H       2.402648   -0.817132    3.809170
H       1.090588   -4.788597    4.359916
