25

C       0.009121    1.600631    0.015810
C       0.042509    0.070520    0.030111
C       0.772774   -0.552970   -1.184513
C       1.271792   -1.955171   -0.733673
C       0.166981   -3.008831   -0.937025
C       2.538268   -2.385585   -1.485890
C       1.504728   -1.768882    0.770412
C       2.258465   -0.546608    1.234123
C       0.747785   -0.547142    1.235068
H       1.023319    2.014609    0.038872
H      -0.487513    1.979098   -0.884388
H      -0.530602    1.994618    0.883667
H      -0.994837   -0.291425    0.038498
H       0.130438   -0.611784   -2.068821
H       1.626295    0.075761   -1.464502
H      -0.058849   -3.139374   -2.001207
H       0.476581   -3.982495   -0.540810
H      -0.758567   -2.723083   -0.427299
H       3.356820   -1.677491   -1.321811
H       2.878744   -3.372483   -1.152442
H       2.356292   -2.446459   -2.565131
H       1.558977   -2.663313    1.383895
H       2.753095   -0.608821    2.197404
H       2.793469    0.059972    0.510294
H       0.238126   -0.528738    2.193055
