17

C       0.025183    1.511016    0.191956
C      -0.056653   -0.001386   -0.022754
C       0.714623   -0.498065   -1.269007
O       2.092932   -0.181777   -1.201104
C       0.650324   -2.042829   -1.338658
C       1.341797   -2.603867   -2.496327
N       1.878770   -3.068254   -3.406789
C       0.109136    0.092281   -2.487379
N      -0.367879    0.600276   -3.408996
H       1.059485    1.835643    0.344520
H      -0.391183    2.060600   -0.657845
H      -0.538475    1.796787    1.083625
H       0.369422   -0.526300    0.839381
H      -1.103353   -0.312728   -0.113381
H       2.208630    0.764015   -1.342834
H       1.117068   -2.428484   -0.426608
H      -0.393588   -2.369568   -1.346799
