22

C      -0.151571    1.425436   -0.141042
C      -0.126533   -0.095017   -0.204736
O       0.596004   -0.697114   -0.979112
N      -0.968387   -0.727642    0.666500
C      -1.123011   -2.172652    0.689376
C      -2.346448   -2.667152   -0.097590
C      -2.481165   -4.173901   -0.064198
C      -3.170584   -4.856581    1.093169
C      -3.821455   -4.831093   -0.268234
H       0.876368    1.788840   -0.074694
H      -0.574682    1.811286   -1.073262
H      -0.728235    1.823275    0.698369
H      -1.582139   -0.170137    1.236796
H      -0.209493   -2.585455    0.254576
H      -1.184840   -2.509843    1.730447
H      -3.256753   -2.209728    0.313910
H      -2.258570   -2.316333   -1.133055
H      -1.628729   -4.704707   -0.481691
H      -2.770573   -5.796384    1.457256
H      -3.600059   -4.229564    1.868558
H      -4.684454   -4.187345   -0.404841
H      -3.863365   -5.753377   -0.836872
