22

C      -0.496637    1.202943   -0.244447
C       0.481161    0.092495    0.143685
N       1.079683   -0.564416   -1.010821
C       0.796580   -1.837034   -1.375929
O       0.041404   -2.572770   -0.752833
C       1.475494   -2.357522   -2.654993
O       1.290114   -3.747657   -2.712976
C       0.903010   -1.669899   -3.910894
C       1.533621   -2.207157   -5.196805
H      -0.002352    1.982652   -0.834313
H      -1.324396    0.801488   -0.835845
H      -0.910368    1.674711    0.652253
H       1.279947    0.494284    0.778563
H      -0.028021   -0.692060    0.706559
H       1.713932   -0.034534   -1.587366
H       2.555118   -2.140967   -2.594654
H       0.642304   -3.932626   -2.010322
H      -0.180733   -1.838745   -3.923817
H       1.054820   -0.584956   -3.838474
H       2.609620   -2.000713   -5.226521
H       1.397433   -3.289274   -5.258746
H       1.079495   -1.747763   -6.079884
