19

C      -0.028112    1.569469    0.059320
C       0.033832    0.060136    0.015045
C      -0.824611   -0.783013    0.938410
C       0.674406   -0.797400    1.104044
C       1.459798   -1.922693    0.432743
C       1.141821   -1.744118   -1.029777
C       0.389116   -0.653327   -1.259686
C      -0.051238   -0.266439   -2.603546
O      -0.765772    0.677251   -2.864001
H       0.919173    2.015419   -0.264364
H      -0.813923    1.946272   -0.599186
H      -0.229122    1.914242    1.078582
H      -1.394239   -0.255593    1.696969
H      -1.321355   -1.658547    0.531567
H       1.089437   -0.330841    1.990056
H       2.540788   -1.832834    0.608726
H       1.176184   -2.920612    0.792858
H       1.469271   -2.438155   -1.797625
H       0.333185   -0.930392   -3.411052
