17

C       0.038354    1.528195    0.009677
C      -0.036541   -0.010143    0.002821
C      -1.406340   -0.507611    0.013347
C      -2.552569   -0.885813    0.021975
C      -3.885807   -1.354067    0.031005
N      -4.993772   -0.627608    0.042143
C      -6.024871   -1.527525    0.047599
C      -5.550987   -2.816145    0.040042
N      -4.185245   -2.694851    0.029684
H       1.081922    1.855825    0.001345
H      -0.463146    1.944765   -0.867577
H      -0.446306    1.936096    0.900371
H       0.486317   -0.399737   -0.880657
H       0.502868   -0.408367    0.872385
H      -7.053672   -1.200910    0.056785
H      -6.040451   -3.775717    0.041148
H      -3.512165   -3.442668    0.022221
