21

C      -0.018094    1.553407    0.013435
C      -0.003314    0.022356    0.064633
C      -1.400927   -0.599359   -0.005687
C      -2.121389   -0.452968   -1.402652
C      -2.385247   -1.938107   -1.735319
C      -2.871535   -2.486673   -0.351582
C      -1.420511   -2.143819    0.125501
C      -1.042769   -2.563673   -1.308310
O      -0.187983   -3.218965   -1.826212
H       0.996062    1.960005    0.069725
H      -0.471103    1.921491   -0.913222
H      -0.591154    1.970041    0.849399
H       0.611746   -0.371996   -0.754862
H       0.484089   -0.303686    0.992528
H      -2.021054   -0.162802    0.786068
H      -3.050921    0.118866   -1.338916
H      -1.481148    0.027786   -2.148419
H      -2.871700   -2.184816   -2.676714
H      -3.680006   -1.931321    0.130451
H      -3.085815   -3.556727   -0.358772
H      -0.964608   -2.590105    1.007374
