27

C       1.081517    1.452033    2.441054
O       1.512478    0.362436    1.662788
C       0.482180   -0.528874    1.244145
C      -0.395534    0.085788    0.146594
C       1.172532   -1.846851    0.822634
C       2.184989   -1.596121   -0.308124
C       1.803770   -2.567772    2.047765
C       0.736987   -3.082168    3.029336
C       2.714575   -3.739945    1.648996
H       0.492518    1.123401    3.312379
H       1.977131    1.967319    2.798566
H       0.475113    2.170154    1.869900
H      -0.169823   -0.734765    2.107149
H       0.203498    0.419523   -0.704472
H      -1.128163   -0.646037   -0.208718
H      -0.952301    0.948661    0.523497
H       0.378283   -2.499009    0.429622
H       2.576704   -2.534264   -0.706774
H       1.723718   -1.061856   -1.143000
H       3.024803   -0.992863    0.047751
H       2.419349   -1.823129    2.567929
H       0.090078   -3.826128    2.547639
H       1.209032   -3.567156    3.890173
H       0.095262   -2.287734    3.419290
H       3.081942   -4.256377    2.542083
H       2.171334   -4.477731    1.044861
H       3.587121   -3.415785    1.077094
