17

C      -0.058021   -1.111315    0.170119
C      -0.081348    0.086439    0.032218
C      -0.055697    1.485073   -0.135741
C      -1.061914    2.351964   -0.298439
C      -2.454813    2.643669    0.206504
C      -1.783255    3.882680    0.916713
C      -0.580749    3.746692   -0.094430
O       0.771264    3.659701    0.305949
C       1.221494    2.324087    0.027298
H      -0.053442   -2.166111    0.291119
H      -3.154455    2.957897   -0.573626
H      -2.927178    1.880713    0.826806
H      -2.338456    4.823212    0.905033
H      -1.463706    3.637590    1.930684
H      -0.695641    4.443419   -0.936877
H       1.822164    1.964818    0.870758
H       1.858387    2.315149   -0.870367
