19

C      -0.090720    1.570139    0.097105
C       1.443708    1.425305   -0.032434
C       1.771440    0.655674    1.285299
C       0.607458   -0.417976    1.306882
C      -0.009554    0.000450   -0.015602
O      -0.958374   -0.722368   -0.735492
C      -0.709669   -0.376924   -2.100431
O       0.528345    0.337902   -2.194635
C       1.188451    0.199147   -0.949725
H      -0.486379    1.995774    1.022345
H      -0.559270    2.028831   -0.771675
H       2.099633    2.252438   -0.298847
H       2.757073    0.182409    1.257883
H       1.740620    1.321186    2.151389
H       0.980735   -1.445019    1.290727
H      -0.061721   -0.303092    2.162735
H      -0.672134   -1.307009   -2.683134
H      -1.502990    0.277308   -2.485608
H       1.973962   -0.565419   -1.001730
