17

C      -0.014412    1.289681    0.050306
O       0.026936   -0.120144   -0.065626
C       0.647437   -0.581659   -1.191849
C       0.633672   -0.162118   -2.658500
C       0.802471   -1.649675   -3.083154
C       2.134852   -1.724836   -2.317596
C       1.966135   -0.241461   -1.882098
C       0.816326   -2.083456   -1.637380
O       0.345327   -3.262141   -1.132532
H       0.996109    1.719979    0.094300
H      -0.557640    1.745063   -0.789259
H      -0.539031    1.515602    0.980469
H       0.189306    0.686318   -3.162275
H       0.473285   -2.205893   -3.950899
H       3.004368   -2.339834   -2.511391
H       2.688338    0.541728   -1.692328
H       0.846988   -3.477584   -0.337373
