16

N       0.037507    1.292566    0.224321
C      -0.000340   -0.080979    0.044943
N      -1.126745   -0.682455   -0.011741
C      -1.120524   -2.103605   -0.127572
C      -0.785875   -2.711247   -1.482125
C       0.181947   -2.813707   -0.337505
O       1.371891   -2.056321   -0.345615
C       1.348324   -0.757346    0.021579
N       2.461367   -0.214033    0.298516
H       0.737412    1.785557   -0.311885
H      -0.881339    1.708322    0.146787
H      -1.892494   -2.589191    0.460928
H      -1.302521   -3.611702   -1.795009
H      -0.549085   -2.009968   -2.274841
H       0.366112   -3.782387    0.114070
H       2.324348    0.753300    0.581430
