19

C      -0.703742    1.379363    0.082841
C       0.120129    0.114823   -0.008114
O       0.875551    0.147030   -1.206536
C       1.614749   -1.036483   -1.382254
C       3.057333   -1.105280   -0.971674
C       3.296983   -0.135912    0.183382
C       2.092397   -0.786173    0.949419
O       0.955390    0.042593    1.134216
C       1.965314   -1.837230   -0.166585
H      -0.043937    2.249814    0.050405
H      -1.406887    1.430841   -0.751857
H      -1.259379    1.391077    1.023360
H      -0.521954   -0.782207   -0.030891
H       1.340283   -1.584839   -2.279664
H       3.809924   -1.529362   -1.624609
H       4.242177   -0.320012    0.699295
H       3.196082    0.928997   -0.037828
H       2.362044   -1.174155    1.932400
H       1.745760   -2.891255   -0.052003
