23

C       0.195830    1.505245    0.350169
C      -0.084684    0.042102   -0.002493
C       0.798316   -0.480410   -1.140626
C       0.513643   -1.947989   -1.490454
C       1.387114   -2.496801   -2.603785
C       2.835887   -2.878186   -2.314461
C       1.839982   -3.957359   -2.565441
C       1.130257   -1.986723   -3.972975
O       0.262984   -1.202206   -4.272687
H       1.235144    1.644057    0.669001
H       0.026451    2.158358   -0.512932
H      -0.450130    1.852527    1.162712
H       0.059314   -0.584400    0.888495
H      -1.139728   -0.070977   -0.284530
H       0.644985    0.134363   -2.034060
H       1.855212   -0.369892   -0.861215
H       0.647855   -2.569319   -0.595821
H      -0.536349   -2.050117   -1.789763
H       3.580244   -2.674727   -3.077540
H       3.177740   -2.709042   -1.299508
H       1.478194   -4.542900   -1.728048
H       1.891989   -4.499584   -3.503880
H       1.816806   -2.404469   -4.748587
