25

C       0.126986    1.453940   -0.257102
C      -0.032582   -0.064306   -0.042182
C      -1.522092   -0.358521    0.194340
C       0.516180   -0.878161   -1.251893
C       1.990907   -1.202686   -0.965154
C       3.057280   -0.100725   -1.241611
C       3.261677    0.094501    0.288620
C       2.197063   -1.005898    0.577785
C       0.836635   -0.572317    1.146634
H       1.162595    1.752055   -0.433463
H      -0.462537    1.785084   -1.119621
H      -0.230254    2.006818    0.619162
H      -2.129039   -0.045353   -0.663046
H      -1.695606   -1.428480    0.353960
H      -1.896859    0.176244    1.074764
H      -0.046327   -1.816342   -1.331685
H       0.376343   -0.347630   -2.201011
H       2.268662   -2.180195   -1.366085
H       3.944416   -0.464991   -1.765946
H       2.687108    0.772702   -1.785406
H       4.265675   -0.158118    0.639043
H       3.015927    1.086794    0.676664
H       2.601086   -1.862896    1.121603
H       0.929368    0.180198    1.938444
H       0.345097   -1.442800    1.597870
