21

C      -0.031263    1.357286    0.084722
O      -0.030655   -0.049233    0.049313
C      -1.298973   -0.589523   -0.246677
C      -1.191493   -2.089049   -0.257409
O      -1.391061   -2.769469    0.994243
C      -2.347951   -2.959705   -0.029274
C      -3.836589   -2.600814    0.066049
C      -4.113481   -3.760579   -0.938209
C      -2.673951   -4.303558   -0.687162
H       0.987778    1.678769    0.312490
H      -0.333809    1.791226   -0.882294
H      -0.708935    1.747110    0.860779
H      -2.046544   -0.278608    0.500009
H      -1.646107   -0.235854   -1.235258
H      -0.357190   -2.474538   -0.845492
H      -4.227237   -2.811327    1.066005
H      -4.142576   -1.593091   -0.225197
H      -4.939062   -4.431064   -0.695137
H      -4.246430   -3.398249   -1.960154
H      -2.080241   -4.601591   -1.554580
H      -2.656860   -5.113606    0.048074
