25

C      -0.534220    1.419301    0.210481
C       0.143562    0.065780   -0.019128
C       0.662048   -0.577170    1.271491
C       1.339221   -1.934110    1.042320
C       1.856781   -2.561750    2.320449
C       0.918935   -3.342531    3.227121
C       2.008318   -4.046387    2.451172
O       1.666727   -4.822658    1.346546
C       1.239477   -6.122194    1.697851
H       0.158445    2.136540    0.665086
H      -0.892942    1.852953   -0.728413
H      -1.394493    1.322369    0.882341
H      -0.562235   -0.620663   -0.505665
H       0.977630    0.188010   -0.723080
H       1.369912    0.108151    1.759072
H      -0.169640   -0.702733    1.978063
H       0.639503   -2.625145    0.560363
H       2.173046   -1.810655    0.337743
H       2.620934   -1.977624    2.828713
H       1.009371   -3.247101    4.303794
H      -0.095516   -3.483488    2.866813
H       2.863438   -4.429587    3.011711
H       2.028889   -6.679199    2.225654
H       0.347692   -6.097132    2.340638
H       0.999170   -6.645501    0.769242
