17

C      -0.002791    1.578033    0.095849
C      -0.047742    0.051022    0.003230
C       0.691138   -0.513622   -1.217587
O       2.039624   -0.098043   -1.162682
C       0.646189   -2.058693   -1.258460
O       1.491099   -2.546167   -2.286802
C       0.069440   -0.027214   -2.483241
N      -0.397695    0.287592   -3.493099
H       1.030066    1.931806    0.129304
H      -0.494638    2.041789   -0.764740
H      -0.514246    1.918783    1.000193
H       0.425155   -0.393972    0.885671
H      -1.085216   -0.301492   -0.025513
H       2.524293   -0.698178   -1.748630
H       1.059736   -2.431835   -0.317282
H      -0.385915   -2.416534   -1.362245
H       1.055967   -2.388424   -3.133532
