17

C      -0.040691    1.496861    0.075474
C       0.000353   -0.004558   -0.008532
C       0.037032   -0.656834   -1.244367
C       0.038343    0.074432   -2.559927
C       0.072949   -2.055399   -1.169974
O       0.109921   -2.778033   -2.305455
N       0.072977   -2.732831   -0.025703
C       0.036072   -1.996069    1.084034
N      -0.000266   -0.672378    1.160671
H       0.835227    1.945443   -0.407259
H      -0.922118    1.899183   -0.437043
H      -0.066409    1.803602    1.121219
H       0.902628    0.743351   -2.644680
H       0.069716   -0.625681   -3.395014
H      -0.856743    0.697212   -2.672089
H       0.130146   -3.705105   -2.028550
H       0.035755   -2.542514    2.024546
