17

C      -0.173184    1.413233    0.047423
C      -0.047719   -0.034650    0.033517
C       0.054390   -1.237739    0.021911
C       0.187080   -2.635658    0.009090
C       1.273678   -3.466483    0.049295
C       0.769410   -4.799721    0.007136
C      -0.589408   -4.701387   -0.056003
C      -1.683084   -5.705355   -0.121628
O      -0.959757   -3.393197   -0.055692
H       0.341174    1.869125   -0.806387
H      -1.225815    1.712760   -0.001815
H       0.251483    1.844448    0.961269
H       2.303423   -3.151127    0.102476
H       1.339461   -5.715669    0.021665
H      -2.365182   -5.611522    0.731067
H      -2.281518   -5.587396   -1.032185
H      -1.262621   -6.713273   -0.115469
