23

C      -0.635630    1.091689    0.117773
O      -0.262364   -0.263436    0.143085
C       0.783786   -0.565427    1.056285
C       0.269958   -0.671033    2.514942
C       0.029460   -2.187934    2.788598
O      -1.272494   -2.494924    3.265709
C       0.249637   -2.873636    1.435286
C       1.290046   -1.987081    0.734730
C       1.515199   -2.277067   -0.746690
H       0.216109    1.742038   -0.139030
H      -1.407369    1.201627   -0.648377
H      -1.048469    1.435647    1.078480
H       1.579300    0.188335    0.949149
H       0.989182   -0.244291    3.221259
H      -0.672069   -0.127999    2.631254
H       0.781682   -2.549663    3.506638
H      -1.359174   -2.131274    4.152207
H       0.559196   -3.917354    1.534515
H      -0.694674   -2.848642    0.880602
H       2.246530   -2.099266    1.266528
H       0.590850   -2.141883   -1.312441
H       2.269909   -1.606322   -1.171836
H       1.863808   -3.304802   -0.891795
