12

O       0.410169    1.164229   -0.373301
C       0.131309   -0.135345   -0.180633
C      -0.316669   -1.037958   -1.090546
O      -0.686414   -0.982179   -2.387357
C       0.326570   -0.983979   -3.327055
O       0.096290   -0.911305   -4.487009
O      -0.459323   -2.243145   -0.444095
C      -0.086826   -1.984205    0.821608
N       0.276919   -0.758708    1.041197
H       0.695876    1.522135    0.476145
H       1.319763   -1.050277   -2.849852
H      -0.126626   -2.802609    1.522330
