23

C       0.036290    1.289971   -0.297607
O      -0.014004   -0.001485    0.262853
C      -1.289045   -0.581240    0.206617
C      -1.811945   -1.114568   -1.162384
C      -2.242278   -2.387012   -0.420745
C      -3.643206   -2.923044   -0.359852
C      -2.535920   -3.743468   -0.984796
C      -1.370645   -2.018734    0.797321
C      -0.033080   -2.751538    0.879729
H       1.059115    1.656911   -0.181969
H      -0.218827    1.286113   -1.368130
H      -0.650321    1.982104    0.215781
H      -2.029964    0.085976    0.673800
H      -2.589893   -0.537818   -1.669907
H      -0.983699   -1.290657   -1.856813
H      -4.029346   -3.239849    0.604351
H      -4.389865   -2.487344   -1.016903
H      -2.531829   -3.860782   -2.064083
H      -2.178695   -4.614406   -0.444128
H      -1.882640   -2.074161    1.763799
H       0.502923   -2.721808   -0.073047
H       0.613197   -2.298167    1.636397
H      -0.189727   -3.802001    1.146667
