22

C       0.066969    1.532140    0.152627
C       0.090939    0.005104   -0.003783
C       0.708686   -0.414599   -1.347290
C      -0.164934   -0.046541   -2.545947
N       0.511703    0.118710   -3.721628
O      -1.373089    0.077863   -2.473765
C       0.814407   -0.659175    1.153126
C       0.089814   -0.933281    2.445229
C       0.489543   -2.078574    1.545055
H       1.083374    1.945305    0.140935
H      -0.502699    1.999155   -0.655223
H      -0.394743    1.817038    1.102788
H      -0.946493   -0.350177   -0.014252
H       1.712918    0.013522   -1.463159
H       0.833307   -1.505527   -1.365696
H       1.496504   -0.062824   -3.801800
H      -0.024816    0.256065   -4.562676
H       1.859194   -0.368921    1.252299
H       0.622771   -0.801310    3.380420
H      -0.963732   -0.677162    2.495019
H      -0.299045   -2.585362    0.997532
H       1.295415   -2.729767    1.865679
