21

C      -0.104253    1.576816   -0.072138
C       0.022110    0.041368   -0.061554
C       0.739718   -0.487070   -1.314956
O      -0.021765   -0.135987   -2.450649
C       0.530868   -0.598855   -3.670832
C      -0.325470   -0.031066   -4.790997
O      -0.308812    1.382307   -4.793859
C       0.715979   -0.432182    1.133845
C       1.309982   -0.814100    2.106625
H       0.885221    2.044336   -0.070865
H      -0.643219    1.900550   -0.964953
H      -0.645329    1.924926    0.810993
H      -0.988496   -0.388649   -0.072003
H       1.752518   -0.056891   -1.376676
H       0.847180   -1.580230   -1.247353
H       1.569028   -0.246002   -3.776426
H       0.536808   -1.700716   -3.703430
H       0.068236   -0.361273   -5.757819
H      -1.350218   -0.423287   -4.691347
H      -0.511772    1.649677   -3.890217
H       1.822094   -1.154320    2.972399
