18

C      -0.394065    1.471974   -0.037839
C       0.072637    0.028334    0.089586
N       1.243817   -0.261419   -0.845096
C       2.179416   -0.334410    0.336625
C       0.990875   -0.330080    1.243527
C       1.105193   -1.129350    2.305540
C       2.505845   -1.722173    2.336524
C       2.902805   -1.605409    0.830408
O       3.532208   -2.398923    0.190504
H       0.441628    2.165813    0.089964
H      -0.827174    1.640559   -1.028047
H      -1.152791    1.699348    0.718281
H      -0.776296   -0.654178   -0.035107
H       1.147277   -1.181316   -1.269694
H       2.876701    0.512825    0.346445
H       0.303680   -1.480718    2.944822
H       3.224494   -1.167433    2.955117
H       2.537341   -2.766054    2.661944
