16

C      -0.261515    1.596826    0.007125
C       0.038278    0.104340   -0.031790
C       0.703883   -0.588699   -1.239388
C       2.161072   -0.251759   -1.389716
C       2.772306    1.012749   -1.061856
N       3.290410    2.019131   -0.824071
C       1.742055   -1.278129   -0.335393
C       1.137525   -0.554285    0.850816
O       1.330425   -0.597154    2.028577
H       0.611913    2.202153   -0.239443
H      -1.064775    1.847737   -0.692940
H      -0.592589    1.876418    1.011819
H      -0.873970   -0.458413    0.211371
H       0.169818   -1.034619   -2.068486
H       2.628189   -0.719145   -2.252600
H       2.157045   -2.277938   -0.357243
