18

C       0.040071    1.549611    0.479974
C      -0.007090    0.084455    0.096130
C      -1.379940   -0.414037   -0.363915
C      -1.843672    0.221986   -1.589135
C      -2.211019    0.758568   -2.608030
C      -2.629756    1.360817   -3.759139
N      -2.985753    1.873772   -4.739064
C       1.204891   -0.538685   -0.549651
C       0.837780   -0.895760    0.872456
H       1.045620    1.835063    0.801705
H      -0.236626    2.190531   -0.363875
H      -0.648561    1.765770    1.305479
H      -1.347586   -1.498973   -0.523919
H      -2.123273   -0.241676    0.426883
H       1.051757   -1.287752   -1.319354
H       2.072378    0.091082   -0.713647
H       1.453627   -0.504833    1.675139
H       0.440431   -1.887257    1.063891
