25

C       0.133877    1.613305   -0.302193
C       0.014391    0.120640   -0.080819
C       1.222447   -0.780829   -0.151089
C       0.509360   -0.579620    1.170070
C       1.170636    0.145858    2.309982
C       0.298746    0.682913    3.481822
C       1.427191    0.275464    4.465273
C       2.026032   -0.648602    3.362521
C       1.670416   -2.123181    3.534559
H       1.075390    2.012685    0.085234
H       0.097973    1.848202   -1.371974
H      -0.683183    2.158209    0.184319
H      -0.898083   -0.302187   -0.494794
H       1.141375   -1.738484   -0.654205
H       2.190948   -0.302377   -0.267216
H      -0.113233   -1.412751    1.487326
H       1.787583    0.961837    1.919944
H       0.004428    1.735056    3.449192
H      -0.605140    0.081324    3.620578
H       2.086710    1.114318    4.704866
H       1.129150   -0.206616    5.400708
H       3.107632   -0.558307    3.219412
H       0.600300   -2.267354    3.721779
H       1.934195   -2.706634    2.646305
H       2.210326   -2.548258    4.387891
