25

C      -0.669678    0.318078    3.364957
C      -0.680245   -1.015725    2.615741
O      -0.770825   -2.110658    3.525430
C      -1.774983   -1.065831    1.537095
C      -1.710738   -2.307424    0.669483
C      -2.448909   -3.594841    0.974967
C      -3.324723   -3.785526    2.194513
C      -2.856973   -2.755380   -0.219710
C      -4.174708   -2.011938   -0.299353
H       0.101969    0.310882    4.139455
H      -0.475870    1.155798    2.687167
H      -1.637805    0.499957    3.849242
H       0.293709   -1.155151    2.128889
H      -1.602393   -2.021296    4.003922
H      -2.750612   -0.966330    2.029288
H      -1.670334   -0.174557    0.902700
H      -0.721850   -2.447726    0.236305
H      -1.892926   -4.495378    0.724668
H      -3.904851   -2.893720    2.446648
H      -4.040946   -4.599970    2.036875
H      -2.711465   -4.040600    3.064791
H      -2.548885   -3.156846   -1.182725
H      -4.498046   -1.613443    0.665178
H      -4.105050   -1.166178   -0.993077
H      -4.971837   -2.670113   -0.663203
