14

O      -0.041394    1.458099   -0.002332
C       0.001568    0.066909   -0.035360
C       0.708238   -0.431722   -1.331370
C       0.011285   -0.029221   -2.541457
C      -0.570043    0.299711   -3.538667
C       0.789365   -0.458964    1.186048
O       1.246765    0.307363    1.989792
C      -1.354660   -0.522899    0.067467
N      -2.392242   -1.016560    0.188814
H       0.341776    1.717526    0.852815
H       1.721550   -0.013313   -1.315929
H       0.799120   -1.524465   -1.291321
H      -1.087669    0.590086   -4.419551
H       0.901699   -1.556026    1.265153
