13

C      -0.035280    1.439045    0.008888
N      -0.014627    0.001009    0.001424
C      -1.079316   -1.003777    0.001922
C       0.036651   -2.087656   -0.011748
C       1.025680   -0.896920   -0.011009
O       2.219659   -0.745757   -0.018182
H       1.001880    1.783073    0.002669
H      -0.546405    1.840771   -0.874996
H      -0.532754    1.831897    0.904472
H      -1.708324   -0.986897    0.899437
H      -1.719368   -0.975951   -0.887488
H       0.091847   -2.719558    0.876179
H       0.080378   -2.708867   -0.907821
