17

N      -0.037481   -1.122303    0.075885
C      -0.033980    0.034221    0.070279
C      -0.028950    1.475373    0.023093
N      -0.598614    2.345858    1.117422
C      -0.083131    3.294751    0.056974
C       1.209240    2.431907   -0.058859
C       1.728041    2.464085   -1.489998
C       0.381503    2.438426   -2.277273
C      -0.600669    2.397802   -1.112818
H      -1.622123    2.308457    1.070996
H      -0.157415    4.376472    0.165180
H       1.899428    2.423142    0.782892
H       2.314848    3.365956   -1.687064
H       2.363234    1.602833   -1.715102
H       0.238793    3.326414   -2.900064
H       0.289004    1.562167   -2.925173
H      -1.674285    2.354846   -1.305670
