24

C      -1.731644   -1.349574    0.842120
C      -0.577415   -0.432757    0.413924
C       0.571815   -0.400886    1.412095
C       0.222297    0.164860    2.782640
O      -0.438806    1.414983    2.737228
C       0.401267    2.501219    2.407275
C       1.622353   -1.463642    1.363664
N       1.952121   -0.092207    0.997020
C       2.282508    0.181947   -0.392501
H      -2.202498   -0.998979    1.764799
H      -2.506116   -1.378995    0.069519
H      -1.383469   -2.374612    1.008464
H      -0.210694   -0.759277   -0.563051
H      -0.959713    0.586428    0.286305
H      -0.468611   -0.510825    3.298841
H       1.146302    0.233698    3.376133
H      -0.196171    3.410173    2.517813
H       1.269423    2.558136    3.080936
H       0.776710    2.446678    1.376456
H       2.082826   -1.844830    2.273165
H       1.538263   -2.197712    0.561678
H       1.803638   -0.484362   -1.126252
H       2.009641    1.213846   -0.638335
H       3.366226    0.083281   -0.514796
