23

C       2.154101   -0.816171   -0.156944
N       0.734304   -0.599349    0.075505
C       0.019651   -1.576497    0.888196
C       0.255002   -0.192526    1.396588
C       1.164229    0.064539    2.586115
C       0.403263   -0.012235    3.898187
C       0.875336    0.713856    5.112619
N      -0.374339    1.093403    4.465370
C      -0.422380    2.384977    3.798085
H       2.683859   -1.338958    0.654786
H       2.268452   -1.415518   -1.065985
H       2.647917    0.146606   -0.325072
H      -0.956431   -1.886602    0.523679
H       0.602906   -2.373557    1.351117
H      -0.578023    0.507078    1.333686
H       1.967772   -0.678774    2.622450
H       1.651403    1.040232    2.480337
H      -0.086814   -0.974466    4.046839
H       0.792704    0.270836    6.102125
H       1.734154    1.373718    4.983553
H       0.526817    2.710278    3.343507
H      -1.188530    2.364919    3.016035
H      -0.712453    3.143050    4.532925
