16

C       0.335194    1.319114    0.206453
C      -0.176367   -0.108697   -0.001577
O       0.221398   -0.989679    1.038748
C      -1.711323   -0.135371    0.029383
O      -2.401141    0.692246   -0.504034
C       0.248632   -0.622832   -1.381170
C       1.301899   -1.630344   -1.553223
O      -0.076405   -1.975236   -1.690609
H       1.418904    1.370324    0.053039
H      -0.151337    1.998272   -0.497129
H       0.105462    1.653468    1.221853
H       1.127636   -0.778949    1.283722
H      -2.127660   -1.003501    0.580848
H       0.055438    0.081869   -2.190872
H       1.884962   -1.643675   -2.472991
H       1.790606   -2.049758   -0.676855
