15

C      -0.025458    1.483075    0.029873
C      -0.012415   -0.000693   -0.036158
C      -0.097065   -1.005166   -1.146091
C       0.799951   -1.937118   -0.300376
C      -0.184499   -1.946191    0.809458
N       0.901890   -0.908505    0.795352
C      -1.142957   -1.030886    0.006673
C      -2.543686   -0.871751   -0.058612
N      -3.693982   -0.734445   -0.103532
H       0.940934    1.889922   -0.285382
H      -0.802766    1.885699   -0.627001
H      -0.226191    1.822689    1.050822
H      -0.297813   -0.896152   -2.202438
H       1.613668   -2.605753   -0.549628
H      -0.347211   -2.617601    1.642665
