16

C       0.023462    1.516626   -0.107511
O       1.260702    2.139060    0.293369
C       2.278195    1.220185    0.105820
O       3.594629    1.699166    0.412371
C       4.220021    0.535888    0.788719
N       3.526134   -0.493074    1.075586
C       2.143726    0.032719    1.039417
C       0.934233   -0.731059    0.595632
C      -0.052991    0.012640    0.088386
H      -0.760245    2.017559    0.471353
H      -0.165698    1.745108   -1.169551
H       2.303977    0.882928   -0.946530
H       5.301803    0.599224    0.815174
H       1.945115    0.423685    2.050882
H       0.856889   -1.805095    0.723966
H      -0.989746   -0.434507   -0.233627
