17

O       0.132915    1.337338   -0.007835
C      -0.007523   -0.068760   -0.072714
C      -1.428656   -0.523311   -0.037777
C      -2.579560    0.165342   -0.046935
C      -3.611955   -0.950061   -0.023369
O      -3.045531   -1.895961    0.959117
C      -1.940064   -1.961747   -0.009040
C      -3.046698   -1.917261   -1.134378
O      -3.749337   -3.094337   -1.340843
H      -0.255332    1.626565    0.824903
H       0.465592   -0.374174   -1.015625
H       0.562215   -0.571977    0.727800
H      -2.754836    1.228288   -0.113990
H      -4.672485   -0.741540    0.109253
H      -1.260845   -2.802288    0.133243
H      -2.785056   -1.492763   -2.105478
H      -3.962782   -3.432483   -0.459578
