18

C       0.433716    0.760418   -0.257202
C      -0.189243   -0.514510    0.324344
O       0.254825   -0.713408    1.688963
C      -1.697150   -0.519202    0.293774
N      -2.230304   -1.292927   -0.669659
O      -3.489179   -1.305363   -0.855684
C      -2.479606    0.240787    1.215511
N      -3.798150    0.278132    1.047153
N      -1.887140    0.916878    2.232515
H      -2.466050    1.271199    2.977865
H      -0.958649    0.586381    2.475597
H       1.529697    0.712877   -0.222849
H       0.138082    0.873918   -1.303840
H       0.109033    1.649055    0.292542
H       0.117708   -1.372050   -0.286388
H       1.213446   -0.623317    1.697831
H      -4.094694   -0.332131    0.240438
H      -4.404616    0.688779    1.738537
