17

C      -0.027775    1.579707    0.027398
C      -0.006044    0.050351    0.018009
C       0.703994   -0.512130   -1.232859
C       0.743206   -1.963438   -1.274980
C       0.766554   -3.175466   -1.293951
C       0.794038   -4.528962   -1.317638
C       0.819949   -5.743873   -1.341448
C       0.829973   -7.180167   -1.333555
O       1.329424   -7.868684   -2.195681
H       0.986911    1.992622    0.019701
H      -0.554638    1.976051   -0.847515
H      -0.534074    1.957530    0.920173
H       0.501911   -0.327241    0.911926
H      -1.027455   -0.343714    0.051247
H       0.204068   -0.142170   -2.138713
H       1.731569   -0.125743   -1.279053
H       0.330390   -7.629327   -0.451121
