17

C      -0.164504    1.497540    0.050472
C       0.024768   -0.009637   -0.001846
C       0.786613   -0.457135   -1.240377
O       1.076670   -1.863752   -1.228147
C       1.398053   -2.460589   -0.046090
N       2.006741   -3.567040    0.010329
C       0.883929   -1.807527    1.222389
O       0.773067   -0.400522    1.141206
H       0.804408    2.005711    0.040425
H      -0.752845    1.845578   -0.803668
H      -0.686674    1.775454    0.969025
H      -0.957097   -0.514683    0.015451
H       0.210543   -0.281498   -2.152924
H       1.731955    0.097638   -1.305736
H       2.227029   -3.897739   -0.931826
H      -0.098455   -2.254642    1.453494
H       1.564663   -2.044099    2.040137
