17

O       0.026246    0.004490   -0.178345
C      -0.014414    1.182203    0.031006
C      -1.102312    2.265721    0.015989
C      -1.332568    2.868409    1.411771
N      -0.091271    3.211695    2.122219
C       0.781628    2.142215    2.602941
C       1.160583    2.946060    1.405222
C       1.005970    2.336836    0.024106
N      -0.075209    3.139920   -0.677719
H      -2.037225    2.085962   -0.519236
H      -1.899095    3.796674    1.278765
H      -1.933728    2.190407    2.027761
H       1.252344    2.334654    3.563285
H       0.493250    1.104441    2.443858
H       1.911499    3.728878    1.485193
H       1.951117    2.214232   -0.507419
H      -0.063451    2.888412   -1.665234
