14

N      -0.062968    1.307396    0.017432
C      -0.006996    0.051189   -0.006037
N      -1.114753   -0.789462    0.028020
C      -0.781749   -2.124542   -0.015562
N      -1.468042   -3.190076   -0.016587
C       0.743817   -2.107994   -0.027245
O       1.107853   -0.734894   -0.082561
C       1.282904   -2.791897    1.233475
O       1.896971   -2.222082    2.089498
H       0.869811    1.712600   -0.010764
H      -2.047350   -0.415024    0.084901
H      -2.471615   -3.010371    0.018478
H       1.129358   -2.634580   -0.908211
H       1.027703   -3.870463    1.276714
