15

C      -0.522894    1.489378   -0.053046
C       0.228395    0.187844    0.014572
O       1.167310    0.083063   -1.112995
C       2.210158   -0.525968   -0.500936
C       2.145464   -0.537458    0.836283
O       0.981535    0.090587    1.246131
C       3.392518   -1.044491    1.297567
C       4.098068   -1.303010    0.149805
O       3.366822   -0.972086   -0.987827
H       0.176715    2.326592   -0.002999
H      -1.089080    1.545494   -0.986033
H      -1.218838    1.552231    0.787359
H      -0.428043   -0.693895   -0.049859
H       3.737938   -1.216713    2.303873
H       5.053533   -1.756764   -0.044009
