15

C      -0.018838    1.556922   -0.018109
C      -0.006764    0.060638    0.018887
C      -0.030927   -0.796373   -1.066781
N      -0.010277   -2.123573   -0.671021
C       0.028196   -2.129877    0.699174
C       0.031178   -0.815673    1.145652
N       0.069794   -0.973936    2.495144
N       0.088794   -2.299681    2.826405
N       0.063068   -3.007186    1.725250
H       0.872545    1.985143    0.455933
H      -0.048185    1.918721   -1.049616
H      -0.890754    1.972144    0.501543
H      -0.062026   -0.544961   -2.116401
H      -0.021063   -2.921564   -1.279908
H       0.085979   -0.298586    3.239889
