15

O      -0.414010    0.550601   -1.061359
C      -0.047851    1.078290   -0.039772
C       1.208352    1.875290    0.081319
C       1.481311    2.503020    1.442695
C       1.717055    1.508084    2.492464
N       1.897428    0.711634    3.309801
C       2.377585    1.400786   -0.772916
C       1.635611    2.628656   -1.173354
H      -0.646765    0.998093    0.894310
H       2.358110    3.156011    1.384174
H       0.641769    3.138547    1.750729
H       3.368723    1.500803   -0.344232
H       2.203109    0.496575   -1.343998
H       0.956160    2.555713   -2.014557
H       2.104536    3.596185   -1.030942
