15

O       0.082586   -0.013245    0.014652
C       0.027908    1.170027    0.094609
C      -1.041291    2.290993    0.055892
C      -0.812180    3.051893    1.375855
C       0.731694    3.100339    1.308564
C       1.613660    4.088118    1.923918
O       1.519136    2.746530    2.433592
C       0.975047    2.394310   -0.023799
O      -0.096477    2.959614   -0.850614
H      -2.045200    2.169123   -0.344036
H      -1.272405    4.042185    1.343126
H      -1.160818    2.516466    2.262850
H       2.562164    4.342371    1.453192
H       1.189255    4.859042    2.565673
H       1.964353    2.386826   -0.474141
