20

C      -0.608065    1.244132    0.192342
C      -0.073276   -0.167598   -0.072922
C       0.973970   -0.282245   -1.204166
C       1.735143   -1.507362   -0.978602
N       2.528048   -0.248586   -1.045120
C       3.061784   -0.526844    0.364801
C       1.825287   -1.422665    0.548339
C       0.764910   -0.750880    1.071955
C       0.765787   -0.181384    2.456171
H       0.197770    1.941724    0.439536
H      -1.109794    1.623845   -0.703334
H      -1.335138    1.254422    1.010095
H      -0.924394   -0.795001   -0.382448
H       0.736307    0.075758   -2.202576
H       1.911187   -2.355324   -1.631368
H       4.028923   -1.019576    0.222673
H       3.171292    0.335829    1.029521
H       1.667041   -0.485504    2.996427
H       0.696045    0.912334    2.475089
H      -0.093920   -0.553659    3.030150
