17

C      -0.052330    1.422610   -0.016222
N      -0.007449   -0.016764    0.124689
C       0.677058   -0.634164    1.106585
N       1.274690   -0.084312    2.108176
C       1.800918   -1.149414    2.945612
C       0.779519   -1.974765    3.655497
C       1.434833   -2.499683    2.362451
C       0.733035   -2.155638    1.096572
O       0.317419   -2.858350    0.205694
H       0.899495    1.836277   -0.375463
H      -0.843177    1.693352   -0.718857
H      -0.266409    1.875133    0.955638
H      -0.288012   -0.612565   -0.639064
H       2.768471   -0.965494    3.397413
H       1.058036   -2.510154    4.557637
H      -0.252563   -1.641525    3.617057
H       2.043764   -3.391788    2.413993
