25

C       0.059508    1.585227   -0.058899
C      -0.019641    0.062228    0.076501
C      -1.438807   -0.489105   -0.108770
C      -1.517793   -2.007394    0.027483
C      -1.298751   -2.673339    1.432917
C      -2.645003   -3.403427    1.286070
C      -2.890523   -4.826329    1.698234
C      -3.737791   -2.381080    1.147468
C      -2.885975   -2.700138   -0.055433
H       1.083804    1.947597    0.074760
H      -0.283410    1.913129   -1.046734
H      -0.569370    2.082183    0.688355
H       0.648178   -0.406411   -0.658894
H       0.360171   -0.237381    1.062118
H      -2.109733   -0.013116    0.618639
H      -1.814071   -0.199562   -1.100659
H      -0.830189   -2.463229   -0.694146
H      -0.438252   -3.347112    1.451944
H      -1.222624   -1.992115    2.288569
H      -2.909631   -4.927561    2.790765
H      -3.851529   -5.189451    1.318522
H      -2.107517   -5.494250    1.319953
H      -4.745299   -2.785039    1.108670
H      -3.672665   -1.417172    1.647626
H      -3.327553   -3.098718   -0.962771
