18

N       0.081971    1.416069    0.327955
C      -0.039210    0.010194   -0.025044
C      -1.508127   -0.421905   -0.151767
C      -1.557209   -1.918046   -0.414998
C      -1.877703   -2.471090   -1.788515
C      -0.462414   -2.455240   -1.292780
O       0.434402   -1.546505   -1.900993
C       0.727165   -0.356968   -1.308330
O       1.543828    0.361848   -1.816477
H       1.063685    1.676819    0.272473
H      -0.367645    1.974455   -0.394899
H       0.410450   -0.582266    0.785020
H      -2.039685   -0.159218    0.765908
H      -1.983679    0.140829   -0.964400
H      -1.826111   -2.536022    0.435669
H      -2.386036   -3.425664   -1.862872
H      -2.125333   -1.758124   -2.568000
H       0.033240   -3.388714   -1.048871
