20

C       0.075837    1.527719   -0.094326
C      -0.010617   -0.000976    0.060934
C      -1.414355   -0.536325    0.031550
C      -2.141573   -0.971425    1.117606
N      -3.379595   -1.365783    0.677998
C      -3.463606   -1.193182   -0.679683
C      -2.264070   -0.680040   -1.114675
C      -1.929834   -0.343656   -2.533905
O      -2.893020   -0.948626   -3.388262
H       1.116278    1.869079   -0.069356
H      -0.361765    1.856674   -1.042429
H      -0.469138    2.030540    0.710697
H       0.585392   -0.472408   -0.732343
H       0.464426   -0.291355    1.005415
H      -1.870622   -1.036126    2.159884
H      -4.105257   -1.748374    1.257065
H      -4.347424   -1.459510   -1.233694
H      -1.920368    0.750244   -2.680979
H      -0.911819   -0.696366   -2.773787
H      -2.744329   -0.619996   -4.279243
