15

O       0.376455    0.138515   -0.096104
C       0.534928    1.300513   -0.302160
O       0.370008    2.232395    0.671377
C       0.670425    3.570295    0.336826
C       2.178713    3.815055    0.209322
O       2.944983    2.909133    0.023361
C       2.593076    5.287648    0.321523
C       3.941293    5.571113   -0.135288
C       5.053979    5.807939   -0.517222
H       0.791486    1.741613   -1.282147
H       0.199964    3.869870   -0.612938
H       0.238408    4.196276    1.122336
H       1.856581    5.901626   -0.215656
H       2.476138    5.562773    1.380741
H       6.040313    6.010957   -0.854746
