18

C      -0.045710    1.522192   -0.100232
C       0.007320    0.021215    0.042206
N       1.348598   -0.618078   -0.122322
C       0.682373   -0.665314    1.151638
C       1.167635   -0.191924    2.548356
O      -0.064185   -0.792886    3.071441
C       0.200007   -1.823856    2.065773
C       1.546503   -2.392726    2.549828
C       2.205592   -1.277654    2.877004
H       0.845689    1.980841    0.335598
H      -0.092887    1.813022   -1.154996
H      -0.928783    1.927612    0.404956
H      -0.838938   -0.510687   -0.393048
H       1.285660   -1.506273   -0.613663
H       1.330571    0.845507    2.833310
H      -0.640897   -2.480755    1.845742
H       1.846876   -3.429386    2.580584
H       3.207816   -1.130442    3.250270
