19

C      -0.074307    1.587276    0.019727
C      -0.032302    0.065492    0.002577
C       0.691107   -0.588339   -1.177807
C       0.065108   -1.709918   -1.568930
C      -1.185359   -1.901452   -0.820322
C      -1.177563   -1.919432    0.792534
C       0.080098   -1.744489    1.533107
C       0.702390   -0.614384    1.161074
C      -1.408433   -0.667529    0.001058
H       0.936284    2.010281    0.019442
H      -0.597824    1.974225   -0.860900
H      -0.589063    1.954473    0.913872
H       1.670474   -0.258290   -1.506750
H       0.447365   -2.424446   -2.288521
H      -2.013341   -2.456076   -1.246831
H      -2.001439   -2.483520    1.214558
H       0.469216   -2.474833    2.232868
H       1.684915   -0.291632    1.487833
H      -2.340650   -0.112807    0.011747
