15

C      -0.006278   -1.109844   -0.077993
C      -0.013232    0.090748   -0.018880
C      -0.002072    1.519236    0.056631
C      -0.656870    2.444021    1.129222
C      -0.049127    3.354610    0.026520
C       1.233660    2.475897    0.057552
N      -0.691154    2.414527   -0.986410
C      -0.134068    4.788938   -0.089393
N      -0.181606    5.940697   -0.174897
H      -0.007109   -2.170855   -0.131681
H      -1.744892    2.419540    1.161084
H      -0.184912    2.474369    2.110731
H       1.853933    2.508493    0.956957
H       1.831375    2.479278   -0.856936
H      -0.126517    2.415615   -1.843204
