15

N      -0.093119    1.282387   -0.015396
C       0.026973   -0.068627   -0.017095
O       1.070625   -0.685339   -0.044924
C      -1.316033   -0.754261    0.023150
N      -2.446961   -0.157135    0.048818
C      -3.450119   -1.191432    0.047561
C      -3.452525   -2.103291   -1.165338
C      -2.664017   -2.498925    0.044446
O      -1.300800   -2.106534    0.060093
H       0.740415    1.844713   -0.007951
H      -1.005515    1.705718    0.028759
H      -4.362245   -0.996860    0.597486
H      -4.361489   -2.667672   -1.340851
H      -2.925098   -1.778232   -2.055803
H      -2.853432   -3.395269    0.619361
