17

C      -0.243661    1.494552    0.161545
C      -0.001765   -0.004075    0.043635
C       1.069353   -0.438862   -0.992708
N       2.036064   -0.641698    0.111391
C       0.968255   -0.649296    1.129903
C       1.277589    0.229936    2.346872
O       0.666439    0.197569    3.378017
C       0.513609   -1.979370    1.541251
N       0.191245   -3.054421    1.818989
H       0.695270    2.055750    0.195557
H      -0.808350    1.843278   -0.708944
H      -0.824498    1.737469    1.056352
H      -0.948363   -0.539918   -0.026862
H       0.791790   -1.353257   -1.530105
H       1.383154    0.320393   -1.716194
H       2.610193   -1.476422    0.068845
H       2.118623    0.929520    2.155551
