15

C       0.009546    1.535595    0.043744
C      -0.006757    0.049431   -0.036524
C      -0.089287   -0.821539   -1.101581
O      -0.200859   -0.440824   -2.399719
C       0.005225   -1.374076   -3.376329
N      -0.139951   -1.017618   -4.574701
N      -0.069972   -2.102915   -0.668146
N       0.027114   -2.096390    0.636461
N       0.060916   -0.809933    1.015340
H       0.919041    1.909176    0.526961
H      -0.029342    1.946489   -0.967042
H      -0.850524    1.925516    0.599428
H       0.280730   -2.353706   -2.982671
H       0.051874   -1.804896   -5.191372
H       0.127463   -0.592801    1.997428
