14

N      -0.163575    1.318768   -0.469443
C      -0.066952   -0.039400   -0.173738
C      -1.039858   -0.989082   -0.038451
C      -2.529313   -0.995388   -0.194892
C      -2.973990   -0.023088   -1.194294
N      -3.286691    0.773377   -1.970923
O      -0.486657   -2.167584    0.344607
N       0.878379   -2.010103    0.467365
C       1.118978   -0.759533    0.163814
H       0.661466    1.685255   -0.924477
H      -0.990368    1.567762   -0.998517
H      -2.855028   -1.996492   -0.498746
H      -3.039027   -0.774366    0.753062
H       2.135871   -0.392541    0.190722
