20

C      -0.034024    1.551453    0.027752
C       0.023505    0.049551   -0.035957
C      -0.021266   -0.625195   -1.186736
C      -0.022505   -2.124189   -1.323328
C      -0.330457   -2.823533    0.005741
C       0.465773   -2.184272    1.143777
C       0.085011   -0.693087    1.300830
C       1.008055   -0.042686    2.240162
N       1.740321    0.453107    2.984665
H       0.861632    1.969853    0.500431
H      -0.131970    1.982946   -0.971258
H      -0.888426    1.889404    0.629051
H      -0.072201   -0.055492   -2.112685
H      -0.752576   -2.420464   -2.086571
H       0.952676   -2.457484   -1.708900
H      -1.403568   -2.743436    0.222016
H      -0.100552   -3.891654   -0.059901
H       0.294603   -2.702932    2.091617
H       1.538563   -2.253141    0.930470
H      -0.911032   -0.631548    1.766761
