18

C      -0.107093    1.566050    0.024683
C       0.050929    0.035814    0.000622
C       0.931297   -0.488347   -1.132296
C       1.714733   -1.487040   -0.729052
C       1.499582   -1.817862    0.729325
C       0.796608   -0.551089    1.268668
O       1.722489    0.372543    1.800444
C      -1.278916   -0.586736   -0.097953
N      -2.321490   -1.083471   -0.163667
H       0.870949    2.043470    0.099839
H      -0.600432    1.910135   -0.888423
H      -0.707930    1.882955    0.880645
H       0.860951   -0.088562   -2.136855
H       2.402373   -2.033420   -1.364540
H       0.863430   -2.706242    0.835600
H       2.419777   -2.013690    1.288884
H       0.092261   -0.758261    2.076211
H       2.437659    0.477358    1.161615
