25

C      -0.156350    1.644638    0.201923
C      -0.021891    0.119159    0.136220
C      -1.349129   -0.609837   -0.082941
C      -2.035217   -0.343530   -1.428624
O      -2.953587   -1.407050   -1.612215
C      -2.493678   -2.593127   -0.921487
C      -3.632397   -3.044769   -0.001618
C      -2.174197   -3.667745   -1.964469
C      -1.240000   -2.143384   -0.129454
H       0.810965    2.118045    0.396491
H      -0.541982    2.056909   -0.736450
H      -0.841218    1.947010    1.002046
H       0.673053   -0.155674   -0.669125
H       0.433724   -0.243973    1.066107
H      -2.047010   -0.325261    0.716244
H      -2.595345    0.595886   -1.465365
H      -1.284063   -0.320877   -2.238768
H      -4.551644   -3.174970   -0.580126
H      -3.391838   -3.996077    0.484539
H      -3.824455   -2.297701    0.774509
H      -1.417031   -3.307205   -2.667396
H      -1.792892   -4.576761   -1.486528
H      -3.071189   -3.929259   -2.533931
H      -0.327718   -2.430765   -0.665979
H      -1.194031   -2.599303    0.863140
