17

O      -0.075482    1.299593    0.023908
N       0.033448   -0.109282    0.026975
C      -1.128304   -0.654208    0.013631
C      -2.469652   -0.101053   -0.008180
C      -3.337467   -1.138501    0.016455
N      -2.719200   -2.371842    0.145934
C      -1.285318   -2.146219    0.043167
C      -0.392772   -3.065794   -0.754844
C      -0.297359   -3.038795    0.748954
H       0.847731    1.570240    0.043250
H      -2.709299    0.948513   -0.013556
H      -4.419142   -1.100012   -0.014588
H      -3.105725   -3.146344   -0.375487
H      -0.846490   -3.934184   -1.223266
H       0.390686   -2.585425   -1.330772
H       0.553511   -2.539435    1.198886
H      -0.697377   -3.882223    1.301014
