17

O      -0.460336    0.286661   -0.107519
C      -0.065429    1.409255    0.069724
C       1.410966    1.814685    0.042299
C       1.684416    2.521921   -1.265810
C       2.249576    3.721408   -1.375889
C       2.731564    4.552175   -0.220027
C       2.370790    3.982499    1.131075
O       0.975262    3.859686    1.418992
C       1.742686    2.658276    1.259247
H      -0.759890    2.257754    0.241929
H       1.985921    0.880799    0.082803
H       1.385490    1.980150   -2.159188
H       2.409151    4.141648   -2.365677
H       3.824719    4.657106   -0.275704
H       2.335998    5.574434   -0.297166
H       2.959657    4.351991    1.970897
H       1.885486    2.099811    2.184320
