19

O       0.173532    1.344043   -0.403196
C       0.066880   -0.010500    0.001877
C      -1.353432   -0.560796   -0.130231
C      -1.448080   -2.051649    0.248816
C      -2.841819   -2.588743    0.183579
N      -3.696381   -2.641467    1.183842
C      -4.858913   -3.158701    0.658869
C      -4.710172   -3.423028   -0.675045
N      -3.414618   -3.053098   -0.968868
H      -0.376267    1.870558    0.185977
H       0.748598   -0.567200   -0.651796
H       0.427243   -0.151739    1.034168
H      -2.031219    0.009286    0.518269
H      -1.697587   -0.405473   -1.159649
H      -0.787460   -2.638894   -0.402675
H      -1.092820   -2.192684    1.274070
H      -5.732419   -3.315496    1.273289
H      -5.370808   -3.832170   -1.420992
H      -2.970087   -3.120627   -1.868976
