19

C       0.255015    1.427209   -0.261933
O      -0.095860    0.073287    0.007130
C       0.543158   -0.448643    1.085934
C       1.951270   -0.803439    1.437978
O       1.950867   -0.168805    2.712525
C       0.502103   -0.224799    2.677220
C       0.175050   -1.737774    2.828567
C      -1.315602   -2.051352    2.854516
C       0.824571   -1.886202    1.450865
H       1.331424    1.525712   -0.450246
H      -0.301998    1.726501   -1.151725
H      -0.019439    2.082480    0.574853
H       2.873992   -0.887567    0.879909
H       0.016365    0.547248    3.271926
H       0.697831   -2.209405    3.668440
H      -1.840260   -1.543963    2.037493
H      -1.494839   -3.126029    2.747415
H      -1.766330   -1.731333    3.800557
H       0.859025   -2.747295    0.794904
