20

C      -0.115372    1.604569   -0.042411
C       0.043381    0.091985   -0.026349
O      -1.240334   -0.526466   -0.115439
C       1.054923   -0.620033   -1.003375
C       1.593194   -1.466079    0.190478
C       2.811268   -0.939594    0.969875
C       2.898315    0.525759    0.995220
N       1.932486   -0.115046    1.915584
C       0.723549   -0.648595    1.165419
H       0.824710    2.140653    0.097770
H      -0.541673    1.928018   -1.000885
H      -0.803074    1.908197    0.752300
H      -1.624890   -0.279063   -0.964118
H       0.538964   -1.206213   -1.767468
H       1.790980    0.023776   -1.492266
H       1.514884   -2.548499    0.113760
H       3.602620   -1.573222    1.359187
H       3.728448    0.962120    1.543769
H       2.574024    1.122654    0.151722
H       0.025793   -1.098492    1.870479
