17

C       0.015959    1.460860   -0.057078
C       0.005857   -0.055313   -0.019374
O       0.698784   -0.521225   -1.184339
C       0.789477   -1.844472   -1.316334
N       0.278745   -2.711386   -0.461373
N       0.635224   -3.905351   -1.059947
C       1.324813   -3.663025   -2.193112
N       1.885394   -4.649402   -2.979018
N       1.435183   -2.363527   -2.400133
H       1.040815    1.842399   -0.053570
H      -0.484854    1.830101   -0.956416
H      -0.505489    1.858683    0.818609
H       0.504948   -0.443658    0.876370
H      -1.014667   -0.456196   -0.022573
H       0.469454   -4.772601   -0.580239
H       1.318655   -5.477628   -3.097652
H       2.194399   -4.278017   -3.866871
