18

C       0.321019    1.472327   -0.262237
C       0.038411    0.025256    0.093102
O       0.572736   -0.899360   -0.890013
C       1.359052   -1.586554    0.119104
C       2.832486   -1.286166    0.062137
C       3.192455   -0.416118    1.006397
C       2.039107    0.025601    1.881696
C       0.819668   -0.671498    1.245910
H       1.394031    1.659418   -0.356258
H      -0.147218    1.709293   -1.222866
H      -0.094729    2.148901    0.492774
H      -1.046438   -0.122600    0.187431
H       1.120158   -2.656416    0.133715
H       3.493402   -1.728875   -0.674303
H       4.201607   -0.046056    1.157957
H       2.185753   -0.289253    2.922998
H       1.941924    1.117951    1.910209
H       0.168087   -1.139320    1.983808
