23

C       0.013394    1.524139    0.005084
C       0.099590   -0.003704   -0.047482
C       0.657285   -0.605989    1.246632
C       0.740780   -2.131108    1.244475
C       1.898012   -2.697326    0.368974
O       2.689999   -2.961842    1.543290
C       1.581720   -2.691523    2.423944
O      -0.577306   -2.594227    1.066193
C      -0.794076   -3.980603    0.911533
H       0.998787    1.974536    0.169988
H      -0.386986    1.932499   -0.928036
H      -0.640067    1.855003    0.820038
H      -0.890788   -0.429170   -0.236009
H       0.730795   -0.303541   -0.894500
H       1.661380   -0.210648    1.444596
H       0.025649   -0.306286    2.093128
H       1.663883   -3.616515   -0.181815
H       2.388140   -1.992053   -0.311555
H       1.841170   -1.979734    3.216233
H       1.186138   -3.606408    2.883209
H      -0.381148   -4.367394   -0.029625
H      -0.381234   -4.571649    1.739873
H      -1.877704   -4.120566    0.895269
