24

C       0.148680    1.630204   -0.012385
C      -0.001796    0.106065   -0.014866
C       0.595946   -0.547159    1.236568
C       0.665311   -2.091684    1.218570
C      -0.720775   -2.722265    1.059658
O       1.408091   -2.532203    0.070622
C       1.366204   -2.573415    2.510774
C       1.601166   -4.084102    2.600723
H       1.203325    1.926008    0.027309
H      -0.286912    2.074839   -0.912764
H      -0.350120    2.079140    0.854177
H      -1.064809   -0.148307   -0.097030
H       0.484932   -0.318820   -0.899502
H       1.620791   -0.170152    1.375985
H       0.039114   -0.225801    2.126984
H      -1.184156   -2.404104    0.123382
H      -0.647149   -3.811623    1.037180
H      -1.374531   -2.433449    1.888326
H       2.293978   -2.158189    0.136169
H       2.334329   -2.055683    2.574591
H       0.787084   -2.229157    3.376877
H       2.088753   -4.450632    1.693305
H       2.239128   -4.325334    3.456449
H       0.665579   -4.637269    2.724756
