16

N      -0.002514    1.357550    0.006198
C       0.014733    0.086760    0.002181
N      -1.168178   -0.652966    0.009386
C      -2.414051   -0.006996    0.020956
C      -3.565892   -0.670019    0.028233
C      -3.618171   -2.165454    0.024625
N      -2.269973   -2.717553    0.012409
C      -1.076138   -2.061778    0.004624
O      -0.006400   -2.640438   -0.006004
H       0.948716    1.718637   -0.000004
H       0.885719   -0.567359   -0.006415
H      -2.330024    1.071072    0.023167
H      -4.502804   -0.128269    0.037007
H      -4.163605   -2.533749    0.907842
H      -4.177632   -2.529027   -0.851744
H      -2.158045   -3.719102    0.008149
