21

C      -0.455136    1.371222    0.059726
C       0.053270   -0.064358   -0.046354
C       1.124567   -0.318685   -1.117015
C       1.679002   -1.674310   -0.677742
O       1.558631   -1.703159    0.748346
C       0.729104   -0.651956    1.207181
C       1.396827    0.308214    2.228437
O       0.324493    0.097136    3.169297
C      -0.188758   -1.007288    2.396301
H       0.370790    2.084975    0.140360
H      -1.035843    1.639678   -0.828015
H      -1.098404    1.504011    0.935386
H      -0.802862   -0.719617   -0.264115
H       0.727582   -0.329218   -2.135341
H       1.901102    0.454089   -1.064280
H       1.097589   -2.500876   -1.111622
H       2.730519   -1.825748   -0.942213
H       2.352682   -0.092436    2.590305
H       1.514389    1.365452    1.969031
H      -1.271568   -0.932548    2.236649
H       0.053905   -1.980246    2.842508
