22

C      -0.213273    1.429126   -0.155881
N       0.041457    0.007965    0.029534
C       1.406264   -0.474815   -0.175215
C       0.799778   -0.460894    1.187865
C       1.341334    0.468281    2.263597
C       2.310083   -0.310661    3.171319
C       1.660934   -1.607649    3.659483
O       1.229109   -2.414578    2.577810
C       0.261818   -1.754603    1.778157
H       0.635229    2.085725    0.091026
H      -0.474380    1.601843   -1.204877
H      -1.069540    1.729193    0.456954
H       1.509676   -1.402601   -0.733118
H       2.178564    0.266243   -0.382578
H       1.839827    1.341110    1.834041
H       0.503145    0.842409    2.869382
H       3.218605   -0.561037    2.611197
H       2.609941    0.301088    4.029975
H       2.369527   -2.214123    4.231085
H       0.807036   -1.372685    4.320327
H      -0.639554   -1.532050    2.377325
H      -0.024493   -2.447199    0.983544
