16

C       0.148552    1.553336   -0.132304
C      -0.064327    0.045293    0.086454
C       0.565894   -0.466902    1.334580
C       0.080690   -1.018387    2.476083
C       1.221229   -1.294473    3.313502
C       2.314345   -0.883415    2.604487
O       1.934032   -0.383398    1.412956
C       1.225431   -1.872752    4.606527
N       1.216509   -2.346114    5.663335
H       1.214167    1.791957   -0.184799
H      -0.319229    1.873500   -1.067508
H      -0.288301    2.132900    0.686207
H      -1.133263   -0.183445    0.136272
H       0.335912   -0.507662   -0.772830
H      -0.952056   -1.215095    2.713469
H       3.370043   -0.888616    2.817675
