18

C       0.062295    1.581594   -0.031900
C      -0.009884    0.048015    0.017607
O      -1.363187   -0.381135    0.007513
C       0.724987   -0.611402   -1.186983
N       1.987741   -1.100243   -0.605991
C       1.878801   -1.144982    0.749196
C       0.768287   -0.512906    1.205594
C       0.302559   -0.417632    2.554266
O      -0.787684    0.054652    2.863060
H       1.098088    1.927898   -0.114817
H      -0.504038    1.949812   -0.893301
H      -0.371298    2.004077    0.878262
H      -1.701274   -0.171243    0.891137
H       0.115187   -1.440853   -1.562490
H       0.918848    0.089694   -2.002512
H       2.557361   -1.766403   -1.102112
H       2.647740   -1.637300    1.334228
H       0.979820   -0.825323    3.336589
