19

C      -0.120079    1.558656   -0.244857
C       0.030022    0.059363   -0.056534
O       0.952297   -0.438724   -1.014895
C       1.483473   -1.644832   -0.515134
O       1.163299   -1.723718    0.866177
C       0.644162   -0.471351    1.265636
C       1.752527    0.437200    1.823555
C       1.353901    1.398597    2.926308
O       2.880161    0.363781    1.397487
H       0.841430    2.066338   -0.132582
H      -0.496049    1.763981   -1.250408
H      -0.834933    1.972128    0.473153
H      -0.949261   -0.431501   -0.179960
H       1.035126   -2.519003   -1.011143
H       2.568583   -1.628571   -0.666791
H      -0.123632   -0.644183    2.027175
H       1.147587    0.830772    3.841990
H       2.163297    2.104377    3.116512
H       0.434790    1.938218    2.674865
