17

C       0.380119    1.586609   -0.083865
C       0.077159    0.103129   -0.012331
N       0.979690   -0.778608   -0.826277
C       1.191492   -1.690919    0.311962
C       2.481069   -1.300366    1.085319
O       1.755706   -0.289746    1.826528
C       0.487633   -0.690412    1.254395
C       3.033951   -2.332829    1.965218
N       3.454555   -3.174536    2.636338
H       1.410036    1.777382    0.225842
H       0.249456    1.955534   -1.105943
H      -0.292876    2.151139    0.570403
H      -0.984846   -0.087574   -0.223514
H       0.540245   -1.208292   -1.630844
H       0.954848   -2.746937    0.188995
H       3.268577   -0.872621    0.457459
H      -0.259330   -0.907876    2.018575
