15

N       0.286764    1.185903    0.582177
C      -0.072843   -0.086810   -0.035637
C      -1.554454   -0.201796   -0.229996
C      -2.082581   -0.814808   -1.287878
C      -1.252044   -1.390938   -2.341002
N      -1.733019   -2.082587   -3.283963
O       0.115912   -1.132272   -2.297442
C       0.716534   -0.381756   -1.320050
O       1.844509   -0.018439   -1.485206
H       1.300030    1.231892    0.651859
H       0.020613    1.946767   -0.038533
H       0.235251   -0.877884    0.668679
H      -2.172472    0.220982    0.555423
H      -3.148915   -0.940955   -1.425981
H      -0.993821   -2.391839   -3.917761
