18

C       0.127728    1.548186    0.143527
C      -0.035642    0.030857   -0.040777
C       0.728843   -0.480917   -1.235626
N       0.308848   -0.051539   -2.443950
C       0.997051   -0.499857   -3.487314
N       2.045901   -1.321433   -3.488718
C       2.460813   -1.741119   -2.284793
N       3.563476   -2.549811   -2.265397
C       1.811423   -1.333617   -1.106559
H       1.171698    1.810175    0.343952
H      -0.185925    2.072231   -0.762557
H      -0.479093    1.904572    0.981101
H       0.287641   -0.499463    0.861167
H      -1.096569   -0.198369   -0.193584
H       0.662958   -0.161408   -4.466639
H       3.826577   -2.946709   -3.153626
H       3.735932   -3.115618   -1.451727
H       2.148415   -1.673806   -0.133168
