19

C       0.146544    0.555909    0.933495
C      -0.182060    0.762832   -0.547200
C       0.731684    0.034481   -1.479622
C       1.791928   -0.767707   -1.222316
O       2.307575   -1.200613   -2.419148
C       1.515594   -0.625046   -3.356088
C       1.818796   -0.902817   -4.802131
N       0.924438   -0.255377   -5.751590
N       0.571601    0.112915   -2.866414
H       0.082033   -0.501557    1.210301
H       1.158176    0.903348    1.167835
H      -0.551779    1.110013    1.566431
H      -1.213310    0.447401   -0.751223
H      -0.152372    1.832092   -0.793047
H       2.287070   -1.118054   -0.333955
H       2.851232   -0.595691   -5.011882
H       1.795281   -1.987613   -4.965926
H      -0.030722   -0.533419   -5.541766
H       0.940204    0.747120   -5.583005
