20

C      -0.176851    1.321959    0.079746
O       0.024910   -0.076608    0.049013
C       0.716064   -0.608649    1.186584
C      -0.302035   -0.857573    2.307943
O      -1.358788   -1.683532    1.860075
C       1.414474   -1.891627    0.738387
C       2.426338   -1.676648   -0.388139
O       3.115870   -2.869640   -0.732047
H       0.779621    1.862935    0.126714
H      -0.690290    1.592372   -0.846237
H      -0.796394    1.642070    0.929274
H       1.466585    0.120999    1.532480
H       0.180339   -1.367364    3.148628
H      -0.682466    0.106086    2.684612
H      -1.612247   -1.329899    0.997733
H       1.929789   -2.332461    1.599384
H       0.648119   -2.610335    0.424133
H       1.925232   -1.232795   -1.258761
H       3.202987   -0.972905   -0.065816
H       2.469252   -3.487551   -1.087672
