19

C      -0.145267    1.457210   -0.258502
C      -0.319434   -0.024620   -0.534910
O      -1.193466   -0.562688    0.459816
C      -1.426326   -1.927423    0.333706
C      -2.253832   -2.523041    1.483310
O      -3.245261   -3.041155    0.566961
C      -2.625670   -2.402635   -0.561984
C      -3.477611   -1.285396   -1.132515
O      -3.174835   -0.648655   -2.108946
H       0.535335    1.899718   -0.991702
H      -1.106745    1.973582   -0.324272
H       0.266915    1.618533    0.741699
H      -0.745868   -0.188117   -1.532819
H       0.648016   -0.549855   -0.487067
H      -0.499782   -2.473143    0.111749
H      -1.783962   -3.316642    2.072799
H      -2.663882   -1.755420    2.150020
H      -2.373559   -3.112296   -1.359639
H      -4.415319   -1.100279   -0.562981
