19

O      -0.024028    1.376659   -0.047496
C       0.014652   -0.032063    0.013734
C       0.603950   -0.615405    1.321459
O      -0.074229   -1.856660    1.541373
C      -0.991878   -2.050849    0.458981
C      -1.394151   -0.629031    0.058600
C      -0.273231   -2.735495   -0.713980
O       0.907288   -2.034024   -1.079274
C       0.735936   -0.633461   -1.210079
H       0.881155    1.706438   -0.072894
H       1.683875   -0.794769    1.254032
H       0.404287    0.071556    2.154054
H      -1.816220   -2.673939    0.817141
H      -1.997678   -0.147382    0.832603
H      -1.916553   -0.566370   -0.899134
H       0.057518   -3.737206   -0.427365
H      -0.965588   -2.825999   -1.568483
H       0.173150   -0.373784   -2.121351
H       1.746473   -0.217397   -1.304048
