20

C       0.115364    1.588612    0.028130
C      -0.008958    0.052353    0.031284
C       0.713791   -0.509006    1.177755
N       1.293707   -0.950759    2.074332
C      -1.479638   -0.462695    0.033547
O      -2.191972    0.000185    1.169450
C      -2.207403   -0.149217   -1.276851
C      -3.576313   -0.816885   -1.355770
O      -4.170855   -0.420976   -2.581545
H       1.165813    1.887402    0.035096
H      -0.352517    2.013522   -0.863350
H      -0.355178    2.017313    0.917217
H       0.472562   -0.343035   -0.872148
H      -1.436955   -1.550550    0.162003
H      -2.403447    0.930815    1.036999
H      -2.344084    0.934015   -1.389424
H      -1.603115   -0.479300   -2.129920
H      -3.455653   -1.911219   -1.302254
H      -4.183362   -0.513350   -0.491215
H      -5.047026   -0.813985   -2.631455
