17

C      -0.117542    1.648110    0.012826
C       0.028106    0.124799    0.003210
C      -1.321202   -0.593161    0.011351
C      -1.184297   -2.113250    0.001134
O      -0.132248   -2.696205   -0.013240
N      -2.430734   -2.769211    0.010811
C      -2.683977   -4.138062    0.005747
O      -1.871168   -5.019279   -0.008507
H       0.862010    2.134970    0.006675
H      -0.670156    2.003677   -0.864251
H      -0.654272    1.994063    0.903507
H       0.595157   -0.197218   -0.876128
H       0.610768   -0.206679    0.868732
H      -1.909248   -0.303960    0.894278
H      -1.925069   -0.293923   -0.857459
H      -3.250220   -2.179000    0.022920
H      -3.779375   -4.319007    0.015759
