21

C       0.059485    1.556629    0.158055
C       0.035999    0.035419   -0.022831
C      -1.361865   -0.564268   -0.041997
C      -1.475432   -2.122706   -0.073441
C      -2.613914   -1.942113    0.968274
N      -2.114109   -0.582651    1.235328
C      -3.106223    0.444479    1.481699
C      -1.785422   -2.765586   -1.334657
N      -2.037623   -3.267100   -2.345755
H       1.082870    1.938950    0.101169
H      -0.527680    2.060210   -0.617736
H      -0.346446    1.846017    1.131913
H       0.527633   -0.232069   -0.967537
H       0.606715   -0.442174    0.782384
H      -1.956438   -0.127171   -0.862763
H      -0.591560   -2.586141    0.371604
H      -3.604356   -1.960386    0.487861
H      -2.617695   -2.618518    1.827991
H      -3.634428    0.224448    2.415405
H      -2.623529    1.419064    1.592919
H      -3.857413    0.520986    0.673368
