16

C       0.285493    1.331442    0.161381
N       0.094620   -0.104809    0.095736
N      -0.016157   -0.706931   -1.105849
C      -0.179080   -1.997955   -0.830753
C      -0.173782   -2.239209    0.555537
C       0.004268   -0.992841    1.123763
C       0.071931   -0.592162    2.570142
C       1.369312   -0.030932    2.965719
N       2.387455    0.427552    3.262411
H       1.211508    1.579202    0.687470
H       0.339721    1.691384   -0.864849
H      -0.555272    1.816999    0.668282
H      -0.293634   -2.705959   -1.637997
H      -0.280591   -3.177942    1.075218
H      -0.703944    0.143413    2.819507
H      -0.127259   -1.473223    3.187161
