21

C       0.069844    1.342051   -0.210839
O       0.007340    0.039583    0.325580
C      -1.246918   -0.563715    0.172004
C      -1.617318   -1.268218   -1.177768
C      -0.401373   -2.182803   -1.406800
C      -0.220913   -2.734989    0.050612
C      -1.380605   -1.996139    0.743787
C      -2.522405   -2.183355   -0.291365
O      -3.735552   -1.617761    0.157466
H       1.070585    1.731385   -0.008282
H      -0.099124    1.349706   -1.298225
H      -0.672147    2.008204    0.256226
H      -2.048926    0.095589    0.517996
H      -2.023847   -0.726161   -2.033709
H      -0.611335   -2.972428   -2.134305
H       0.474410   -1.627230   -1.748062
H      -0.335706   -3.821139    0.107124
H       0.745824   -2.465358    0.478016
H      -1.548400   -2.176863    1.805073
H      -2.672312   -3.207874   -0.659936
H      -4.317335   -1.523328   -0.603318
