19

O       0.021202   -0.119878   -0.047383
C       0.098566    1.067924    0.180988
C       1.308158    1.868832   -0.019540
C       1.385327    3.187316    0.228191
C       2.741183    3.755712   -0.061181
C       3.636478    4.033189    1.187947
C       4.270186    2.623898    1.017992
C       3.591737    2.475556   -0.378028
C       2.608526    1.301959   -0.553002
H      -0.776341    1.637094    0.569090
H       0.560075    3.786445    0.603510
H       2.699089    4.566315   -0.796511
H       4.346490    4.844014    1.006410
H       3.117173    4.232983    2.128714
H       5.361625    2.585254    1.028768
H       3.896699    1.895194    1.742894
H       4.294063    2.576343   -1.206731
H       2.918637    0.406169   -0.003332
H       2.493554    0.993246   -1.599326
