18

C       0.117807    1.491864   -0.323534
C      -0.086620    0.066281    0.114157
O       1.032695   -0.837552    0.071958
C       0.443987   -0.550655    1.341328
C       1.307258    0.099831    2.392849
C       2.302891   -0.863552    3.121979
N       3.378319    0.021379    2.679447
C       2.590358    0.896705    1.985926
O       2.841084    1.894430    1.363124
H       1.020480    1.929786    0.104182
H       0.187741    1.535633   -1.415841
H      -0.749061    2.093179   -0.025873
H      -1.001857   -0.392385   -0.269077
H      -0.139332   -1.381832    1.750134
H       0.687965    0.668580    3.093717
H       2.189385   -0.926907    4.208534
H       2.347095   -1.869400    2.692486
H       4.379693   -0.019335    2.793408
