16

C      -0.039517    1.385616   -0.046041
N      -0.012258   -0.057647    0.021846
N       0.024600   -0.791093   -1.113892
C       0.033310   -2.061390   -0.692404
C       0.025393   -2.142293    0.723502
C       0.002068   -0.827980    1.144457
N      -0.089560   -0.247494    2.413328
C       0.054789   -3.143647   -1.608380
C       0.074240   -4.087024   -2.355668
H       0.963344    1.817597    0.057858
H      -0.443415    1.666171   -1.018439
H      -0.680833    1.773745    0.749482
H       0.040738   -3.029737    1.333927
H      -0.103267   -0.950125    3.140595
H       0.652551    0.414974    2.609587
H       0.089676   -4.910724   -3.024990
