19

C       0.177952    1.223918    0.222477
N      -0.078307   -0.206358    0.069104
C      -1.511104   -0.543136   -0.048830
C      -1.648184   -1.917014   -0.656713
C      -1.487171   -2.977588    0.126474
C      -1.256859   -2.784963    1.597074
O      -1.912970   -1.624984    2.126647
C      -2.114506   -0.532580    1.345602
N      -2.762651    0.474411    1.763037
H       1.255856    1.387921    0.311120
H      -0.202756    1.835976   -0.613273
H      -0.303313    1.582632    1.135670
H       0.404409   -0.559281   -0.750144
H      -2.065207    0.205018   -0.633580
H      -1.834618   -2.002766   -1.722234
H      -1.517137   -3.994458   -0.252171
H      -1.653085   -3.626076    2.173779
H      -0.181954   -2.707553    1.809695
H      -3.076461    0.313770    2.723323
