21

C       0.308929    1.429334    0.220620
C      -0.163162    0.011405   -0.126344
C       0.576861   -0.549678   -1.324996
C       1.861674   -1.314923   -1.167965
C       0.591230   -2.038383   -1.642179
N      -0.119973   -2.979243   -0.825343
C       0.602109   -4.208673   -0.519618
C       0.564373   -2.384360   -3.051002
N       0.562401   -2.662553   -4.173928
H       1.378899    1.442013    0.451340
H       0.140088    2.115449   -0.615752
H      -0.230235    1.820139    1.088351
H      -0.013348   -0.634758    0.747241
H      -1.241033    0.021356   -0.330681
H       0.514767    0.082907   -2.206419
H       2.667389   -1.159045   -1.875774
H       2.178713   -1.554052   -0.157592
H      -0.482898   -2.539205    0.008082
H      -0.027697   -4.845653    0.106864
H       0.804981   -4.750312   -1.449009
H       1.564437   -4.049883   -0.005198
