19

C       0.070770    1.399951    0.044106
O      -0.047758   -0.011623    0.082596
C       0.643009   -0.606663    1.148768
C       0.273737   -2.094389    1.248036
C       1.336137   -2.650991    2.220642
C       2.191468   -2.355147    0.972467
O       1.030418   -2.683069    0.139413
C       2.193540   -0.815682    0.861613
O       2.576591   -0.368001   -0.411946
H       1.109885    1.711858   -0.112059
H      -0.540037    1.747592   -0.792483
H      -0.308075    1.854943    0.972213
H       0.452846   -0.064796    2.086297
H      -0.781486   -2.363157    1.260732
H       1.542641   -2.114838    3.151275
H       1.214219   -3.720218    2.393558
H       3.101050   -2.890317    0.701426
H       2.845609   -0.327135    1.589633
H       1.907682   -0.714524   -1.017979
