17

O      -0.068516    1.407704    0.103748
C       0.044294   -0.005069    0.057234
C      -1.373471   -0.571848    0.037782
C      -1.396512   -2.063147   -0.008367
O      -0.776634   -2.840471    1.067801
C      -1.282415   -3.878160    0.185974
C      -2.563770   -3.088728   -0.221332
O      -2.337482   -3.224546   -1.652278
C      -0.987767   -3.092407   -1.126276
H       0.815604    1.777934    0.179795
H       0.586744   -0.335293   -0.843385
H       0.583666   -0.400128    0.930013
H      -1.909556   -0.224378    0.928099
H      -1.910706   -0.189923   -0.837907
H      -1.131137   -4.923103    0.452608
H      -3.583420   -3.111609    0.162472
H      -0.142958   -3.122842   -1.814027
