19

C      -0.008735    1.651497    0.060351
C       0.082075    0.130837    0.018766
C       0.768115   -0.601278   -1.134809
O       0.299462   -0.749285   -2.425452
C       2.270226   -0.726855   -0.797267
C       2.500114   -0.110644    0.581853
C       1.086869   -0.671452    0.920583
O       0.740115   -1.064043    2.204551
C       1.250290   -1.712277   -0.253543
H       0.955318    2.130277   -0.135996
H      -0.716609    2.014209   -0.693166
H      -0.368620    2.004885    1.034039
H      -0.906941   -0.317711    0.168791
H       0.588352    0.010846   -2.942185
H       2.989183   -0.914085   -1.584756
H       3.264389   -0.662487    1.137020
H       2.677871    0.966616    0.676067
H       0.627981   -0.273551    2.744512
H       1.167367   -2.786767   -0.309716
