17

C       0.237880    1.372264    0.189656
C       0.045611   -0.083792   -0.030602
N      -0.402934   -0.693622   -1.079731
C      -0.381830   -2.042411   -0.740883
C       0.094481   -2.186892    0.519876
O       0.373230   -0.926090    0.992424
C       0.337940   -3.328124    1.404594
C       1.432206   -3.295392    2.416261
N       0.029689   -3.244084    2.849703
H       1.285122    1.604912    0.409522
H      -0.063852    1.906465   -0.711410
H      -0.362864    1.727731    1.033505
H      -0.709038   -2.806770   -1.427504
H       0.073226   -4.280171    0.953492
H       1.957366   -4.213471    2.664136
H       2.030154   -2.390689    2.473906
H      -0.217400   -2.283032    3.076400
