18

C      -0.104145    1.530518   -0.141514
C       1.445751    1.680965    0.033172
C       2.081481    2.216873    1.363730
C       2.538038    0.935995    2.182052
C       1.632545   -0.142387    1.604720
C       1.329710    0.222904    0.332631
N      -0.012742   -0.018848   -0.003558
C      -0.508594   -0.736515    1.096805
C       0.472091   -0.872357    2.056005
H      -0.686546    1.942314    0.683512
H      -0.522070    1.819667   -1.105963
H       1.960838    2.018736   -0.868585
H       2.910862    2.906005    1.174904
H       1.334580    2.771398    1.942888
H       3.603874    0.734123    2.026338
H       2.395329    1.075471    3.256823
H      -1.499316   -1.170818    1.077151
H       0.361116   -1.427705    2.978733
