15

O      -0.286521    0.410736   -0.901343
C       0.269343    0.801737    0.099035
C       1.387467    1.783686    0.081897
C       2.306508    1.730479   -1.162217
C       1.341332    2.831377   -1.056319
C       2.044774    2.238724    1.342598
O       2.959617    3.040688    1.341210
C       1.553605    1.687952    2.595055
C       1.170595    1.251021    3.649449
H      -0.033067    0.440017    1.101263
H       3.349227    1.939022   -0.955174
H       2.083759    0.913264   -1.837909
H       0.441099    2.786876   -1.657661
H       1.707778    3.811299   -0.775084
H       0.839406    0.870833    4.585724
