23

C       0.064385    1.511220    0.220242
C       0.012461   -0.014440    0.103807
C      -1.403667   -0.563450    0.004972
C      -1.518062   -2.099868   -0.109735
C      -2.819382   -2.422109    0.635341
C      -3.871481   -3.261314   -0.049433
C      -2.721263   -2.409567    2.152045
C      -3.134887   -1.168283    1.403772
O      -2.130063   -0.212256    1.196238
H       1.096249    1.865882    0.302901
H      -0.383888    1.989892   -0.657691
H      -0.486781    1.847190    1.102219
H       0.568479   -0.344936   -0.782915
H       0.498901   -0.474904    0.972894
H      -1.913087   -0.101242   -0.858360
H      -1.566562   -2.417181   -1.155675
H      -0.650944   -2.592759    0.345310
H      -3.527813   -4.292713   -0.191892
H      -4.792471   -3.301876    0.541155
H      -4.125268   -2.855979   -1.036073
H      -3.483775   -2.949678    2.705550
H      -1.738587   -2.400292    2.612443
H      -4.138761   -0.762598    1.495819
