19

O       0.003363   -0.085847    0.002431
C      -0.013495    1.122398   -0.003634
C      -1.306962    1.927150    0.012895
C      -1.322376    3.020416   -1.071652
C      -0.065683    3.917471   -0.993160
C       1.212838    3.055615   -1.105956
C       1.257110    1.962752   -0.021799
C      -0.093962    4.961787   -2.012253
C      -0.117352    5.804288   -2.869470
H      -2.148346    1.238904   -0.095270
H      -1.388955    2.400619    1.002140
H      -1.360303    2.557751   -2.064957
H      -2.223801    3.632520   -0.975667
H      -0.059059    4.403112   -0.005400
H       1.236709    2.593814   -2.100099
H       2.099188    3.692545   -1.034155
H       1.352663    2.438681    0.965047
H       2.114038    1.298086   -0.152948
H      -0.137956    6.556338   -3.618852
