19

C      -0.052087    1.512320   -0.111771
C       1.294165    0.842509    0.031159
C       0.026075    0.015615    0.015714
C      -0.134615   -0.626491    1.389722
O       0.941392   -1.527582    1.603063
C       2.213472   -0.864145    1.532840
C       1.987616    0.653238    1.379662
C       1.059774    1.061111    2.527557
O      -0.180933    0.347479    2.414216
H      -0.477547    2.076358    0.708527
H      -0.283703    1.905978   -1.095413
H       1.942185    0.827865   -0.839397
H      -0.215051   -0.616555   -0.831776
H      -1.045771   -1.218206    1.491169
H       2.760473   -1.089410    2.457449
H       2.788515   -1.265608    0.687304
H       2.934995    1.195645    1.448457
H       1.522615    0.818601    3.493924
H       0.846303    2.136373    2.515089
