21

C      -0.023143    1.524934    0.076476
C      -0.012219    0.010059   -0.023189
C       0.263713   -0.701976   -1.384048
C      -0.635665   -1.849188   -0.843315
C       0.190234   -2.725409    0.104896
O       1.236701   -1.982567    0.714405
C       0.904489   -0.637130    1.034186
C      -1.360597   -0.753034   -0.012767
O      -1.880718   -1.048409    1.262834
H       0.970837    1.944458   -0.115189
H      -0.717142    1.959711   -0.650774
H      -0.337434    1.852240    1.074223
H      -0.195669   -0.172086   -2.222673
H       1.300934   -0.947033   -1.619183
H      -1.221413   -2.453754   -1.540905
H      -0.469227   -3.171467    0.865113
H       0.680629   -3.537243   -0.443176
H       1.859215   -0.100630    1.079502
H       0.426055   -0.572993    2.021854
H      -2.102093   -0.223257   -0.628288
H      -2.726337   -1.494672    1.155771
