18

C      -0.170050    1.606563    0.157004
C      -0.081584    0.096400    0.144712
C       1.070896   -0.641571   -0.402720
C       0.818622   -0.715775    1.120327
C       1.779850    0.033384    1.952526
O       2.125249   -0.238537    3.085005
C       0.182674   -2.015401    1.583125
N       0.480498   -2.405690    2.841731
O      -0.556017   -2.640674    0.837390
H       0.809732    2.090820    0.172908
H      -0.683119    1.943763   -0.749897
H      -0.743331    1.969207    1.016104
H      -1.030477   -0.418350    0.027930
H       0.890099   -1.575520   -0.920492
H       1.946889   -0.081693   -0.715664
H       2.217539    0.920969    1.451271
H       1.119962   -1.861158    3.405058
H       0.084595   -3.270943    3.169797
