17

C      -0.044548    1.440998    0.029883
N       0.030658   -0.006386   -0.019421
C      -1.039350   -0.674749   -0.007327
O      -2.285029    0.010093    0.054123
C      -3.434627   -0.681389    0.068307
C      -3.486403   -2.025852    0.026577
C      -4.765336   -2.812100    0.041867
C      -2.192477   -2.669213   -0.035356
N      -1.057705   -2.055625   -0.051521
H       0.968119    1.850153    0.011068
H      -0.601088    1.855532   -0.822118
H      -0.545237    1.798379    0.940418
H      -4.300931   -0.028443    0.116838
H      -4.865864   -3.431107   -0.857106
H      -4.810468   -3.487014    0.904357
H      -5.635178   -2.151281    0.090200
H      -2.156314   -3.759752   -0.071872
