14

N      -0.032876    1.216021    0.007004
C      -0.020531   -0.039872    0.000528
C      -1.283793   -0.937233    0.002707
C      -0.622611   -2.270185   -0.007465
C       0.723525   -2.121074   -0.013808
O       1.144482   -0.810457   -0.009357
N       1.412996   -3.280907   -0.023266
C       0.446106   -4.190007   -0.023524
N      -0.808740   -3.634098   -0.013235
H       0.916183    1.592215    0.003961
H      -1.888530   -0.714909    0.888954
H      -1.897865   -0.706066   -0.874818
H       0.595391   -5.258313   -0.030115
H      -1.678073   -4.140055   -0.010993
