18

C      -0.192279    1.325342    0.120607
O       0.364691    0.045036   -0.111616
C       0.872473   -0.555966    1.038993
C      -0.136907   -1.343544    1.940296
C      -0.146602   -2.439310    0.854743
C       1.365034   -2.020556    0.765239
C       1.804036   -2.368979    2.162568
N       2.846547   -2.946198    2.565355
O       0.766299   -1.885073    2.944255
H       0.548811    2.010954    0.556845
H      -0.511074    1.715263   -0.848130
H      -1.062239    1.281156    0.791119
H       1.559172    0.110976    1.579404
H      -1.016749   -0.926381    2.424876
H      -0.379483   -3.456765    1.173543
H      -0.704773   -2.152780   -0.034476
H       2.027910   -2.279373   -0.054449
H       2.842329   -3.027084    3.584055
