18

C      -0.203086    1.479120    0.078727
C       0.077913   -0.009158    0.003119
O       1.190415   -0.332226   -0.869215
C       2.007460   -0.766281    0.238216
C       0.806280   -0.652659    1.210397
O       0.961648    0.196467    2.317808
C       0.212512   -1.981656    1.651584
O       1.069015   -2.481593    2.675614
H       0.671149    2.027129    0.436494
H      -0.473378    1.850795   -0.914283
H      -1.033901    1.677179    0.763246
H      -0.824919   -0.550632   -0.315287
H       2.432078   -1.763723    0.077817
H       2.809762   -0.055069    0.468627
H       1.247925   -0.370047    3.046567
H      -0.804412   -1.809360    2.034919
H       0.151850   -2.673769    0.799916
H       0.635513   -3.220189    3.111690
