23

C      -0.044695    1.548708   -0.024340
C       0.032209    0.013102   -0.011093
C       0.703271   -0.483502   -1.302313
C       0.743390   -0.520089    1.253071
C       0.066379   -0.053752    2.553991
O       0.671372   -0.642322    3.697291
C       0.653845   -2.040154    3.618029
O       1.364388   -2.525203    2.513323
C       0.803811   -2.057253    1.294165
H       0.957489    1.991490    0.020229
H      -0.520065    1.900175   -0.945718
H      -0.623973    1.946583    0.813262
H      -0.998084   -0.373721    0.001026
H       1.754528   -0.174074   -1.341420
H       0.670907   -1.572051   -1.399559
H       0.202542   -0.062662   -2.180155
H       1.776646   -0.147064    1.264666
H       0.151005    1.025424    2.693618
H      -1.008134   -0.311595    2.524392
H       1.149013   -2.421047    4.513606
H      -0.394179   -2.399910    3.576713
H      -0.213453   -2.470625    1.166747
H       1.434636   -2.461952    0.500723
