21

C       0.058761    1.515119    0.035530
C       0.020573   -0.003573   -0.002437
C       0.705645   -0.585145   -1.240802
O       0.718060   -2.007810   -1.194307
C       1.344500   -2.466666   -0.022576
C       1.850483   -3.868505   -0.074774
C       2.832235   -2.709819   -0.082927
C       0.695897   -1.900794    1.217596
O       0.673659   -0.481278    1.171123
H       1.092433    1.874127    0.018840
H      -0.472482    1.937666   -0.822796
H      -0.413596    1.880736    0.950840
H      -1.025639   -0.357055    0.002449
H       0.166005   -0.309364   -2.151711
H       1.734302   -0.196405   -1.303295
H       1.772733   -4.481333    0.817215
H       1.697983   -4.399392   -1.007522
H       3.327062   -2.490133   -1.022110
H       3.429298   -2.526660    0.803944
H      -0.332610   -2.291001    1.300521
H       1.248985   -2.179783    2.118862
