15

N      -0.057688    1.515419    0.155534
C      -0.035487    0.074609    0.001011
C       0.851840   -0.503351    1.012937
N       1.574409   -0.949646    1.796331
C      -1.388142   -0.655320   -0.051549
C      -2.100824   -0.402072   -1.313575
N      -1.006255   -1.410711   -1.325989
C       0.210994   -0.634740   -1.384012
N       1.076606   -0.646784   -2.288398
H       0.882108    1.892868    0.219500
H      -0.517343    1.953714   -0.634900
H      -1.832815   -1.171503    0.789631
H      -3.082137   -0.850836   -1.425807
H      -1.963197    0.520993   -1.870165
H       1.857056   -0.025635   -2.066745
