20

C      -0.219859    1.505346   -0.171601
N       0.048044    0.089820    0.041366
C       1.371613   -0.517072   -0.149036
C       2.567873    0.381304   -0.095340
C       2.686216    0.956318    1.101583
C       1.632884    0.461554    2.087601
C       2.257714   -0.365512    3.216955
O       0.847420    1.523829    2.637875
C       0.734001   -0.426875    1.208459
H       0.606781    2.179134    0.080135
H      -0.485783    1.645296   -1.224785
H      -1.078959    1.785497    0.443031
H       1.389280   -1.420730   -0.751916
H       3.203794    0.569095   -0.953372
H       3.415474    1.711247    1.380777
H       2.965445    0.241091    3.794716
H       1.475245   -0.721716    3.894890
H       2.803587   -1.226764    2.820923
H       1.416940    2.042263    3.216689
H       0.254890   -1.273082    1.695150
