17

N      -0.043074    1.297168   -0.068653
C       0.065586   -0.051267    0.129996
O       1.111974   -0.608452    0.366881
C      -1.284758   -0.779678    0.089097
O      -1.051661   -2.154296   -0.026117
C      -2.225465   -2.926333    0.030438
C      -1.786723   -4.392101   -0.074194
C      -2.923471   -5.305948   -0.033788
N      -3.837271   -6.012095   -0.000712
H       0.807531    1.835905   -0.091275
H      -0.882212    1.721102   -0.424988
H      -1.833260   -0.541404    1.017026
H      -1.895785   -0.403988   -0.750146
H      -2.767915   -2.758725    0.974257
H      -2.911653   -2.676206   -0.794274
H      -1.233079   -4.537852   -1.007348
H      -1.100229   -4.622883    0.746667
