18

C      -0.197348    1.591065   -0.086475
C      -0.063160    0.083655   -0.016608
C       1.184132   -0.611181   -0.419750
O       2.245616    0.205126   -0.833822
C       3.486666   -0.336668   -0.749425
N       4.481280    0.336812   -1.126983
C       0.780781   -0.629437    1.058092
C       1.549527    0.135988    2.067797
O       1.690924   -0.235923    3.208982
H       0.765462    2.095620    0.002001
H      -0.628174    1.877203   -1.051008
H      -0.860418    1.960080    0.701563
H      -0.976269   -0.454464   -0.254682
H       1.119115   -1.554827   -0.956836
H       3.490579   -1.354892   -0.340156
H       5.336029   -0.201925   -1.003577
H       0.393311   -1.567004    1.442954
H       2.002280    1.085242    1.716875
