17

C      -0.003222    1.486806   -0.143807
C      -0.240402   -0.017538   -0.247334
C      -1.395299   -0.499991    0.611474
O      -2.063092    0.226201    1.314653
C      -1.665997   -1.928811    0.544248
C      -1.885506   -3.117898    0.497181
C      -2.149434   -4.548752    0.458256
C      -3.283226   -4.975884   -0.446837
O      -1.488823   -5.318803    1.119368
H       0.834435    1.784161   -0.780070
H      -0.890098    2.045186   -0.453467
H       0.222433    1.776803    0.885268
H      -0.446228   -0.325722   -1.281660
H       0.649729   -0.590219    0.046811
H      -3.089404   -4.650214   -1.474573
H      -3.386974   -6.061159   -0.410516
H      -4.216107   -4.497542   -0.129402
