17

O       0.214341    1.363500   -0.118399
C       0.077815   -0.036720   -0.073147
C       0.391596   -0.679692    1.334269
C      -1.108497   -1.009019    1.454657
C      -2.246240   -0.653479    2.372855
O      -3.270312   -0.158732    1.499020
C      -2.702372    0.336720    0.274777
C      -1.404342   -0.407147    0.148301
O      -1.477218   -1.817857    0.332283
H       1.152576    1.576690   -0.142405
H       0.541909   -0.528025   -0.937472
H       1.070252   -1.534452    1.373678
H       0.712463    0.095273    2.034471
H      -2.679572   -1.490158    2.928975
H      -1.912452    0.113322    3.089622
H      -3.434723    0.142236   -0.513964
H      -2.498134    1.415728    0.319497
