20

O       0.183359    1.416596    0.449996
C       0.121003    0.008388    0.267037
C      -1.306263   -0.466906   -0.025105
C      -1.437333   -1.988190   -0.156441
C      -2.874267   -2.536434   -0.103119
C      -2.735374   -3.866450   -0.846260
O      -1.700645   -3.643591   -1.821808
C      -0.937217   -2.567326   -1.470648
N       0.029806   -2.130531   -2.157373
H       0.089693    1.824573   -0.416244
H       0.795844   -0.332733   -0.525960
H       0.466258   -0.429274    1.211766
H      -1.956261   -0.117258    0.785814
H      -1.664800    0.004332   -0.949190
H      -0.853109   -2.467876    0.643657
H      -3.256470   -2.656234    0.912710
H      -3.550719   -1.866629   -0.645645
H      -2.423091   -4.678886   -0.177782
H      -3.635213   -4.179951   -1.380203
H       0.160563   -2.698287   -2.996331
