15

C      -0.056958    1.390872    0.091405
O       0.006060   -0.021616    0.000028
C       0.627615   -0.530960   -1.092703
C       1.196999    0.144155   -2.112969
O       1.784899   -0.497985   -3.143796
C       1.826106   -1.889541   -3.190675
N       2.404490   -2.384672   -4.201950
N       1.242615   -2.609642   -2.147738
C       0.688327   -1.969028   -1.177255
H       0.948375    1.832046    0.122609
H      -0.610119    1.819377   -0.755185
H      -0.581760    1.617449    1.019803
H       1.248524    1.218493   -2.222894
H       2.368899   -3.399043   -4.121025
H       0.236230   -2.544088   -0.368622
