19

C       0.084570    1.614453    0.017166
C       0.084453    0.108622    0.078054
O      -1.240188   -0.456123    0.330735
C      -0.769695   -1.152579    1.506183
C       0.678690   -0.681098    1.276242
C       1.644034   -1.732970    0.693515
C       1.192613   -1.945626   -0.765033
C       0.632572   -0.586987   -1.186179
O       0.617808   -0.121381   -2.295469
H       1.109298    1.996173   -0.044958
H      -0.451078    1.946964   -0.876331
H      -0.396758    2.037996    0.902680
H      -1.252852   -0.774750    2.415258
H      -0.937563   -2.235465    1.441279
H       1.116559   -0.099707    2.088273
H       2.665963   -1.337924    0.709177
H       1.647408   -2.656858    1.279360
H       1.979215   -2.276852   -1.444789
H       0.376123   -2.676294   -0.825555
