17

O      -0.020942    1.406724   -0.061704
C       0.015889    0.026742   -0.032807
C      -1.144284   -0.982505    0.117305
C      -0.655882   -1.744670   -1.113658
C       0.647799   -0.874830   -1.109238
O       1.850744   -1.492453   -0.662759
C       1.651915   -2.333580    0.442920
O       0.958042   -1.734746    1.522292
C      -0.056971   -0.827905    1.174724
H       0.734664    1.742720    0.433523
H      -2.180005   -0.795095    0.374902
H      -0.552753   -2.829753   -1.048694
H      -1.256100   -1.506748   -1.995575
H       0.880136   -0.386433   -2.055170
H       1.127432   -3.251973    0.138402
H       2.644643   -2.592397    0.819367
H      -0.410334   -0.333635    2.074408
