20

C      -0.554272    1.292478    0.014900
N      -0.003579   -0.052886    0.069374
C       1.392882   -0.233152   -0.307118
C       0.957202   -0.435073    1.103034
C       1.424341    0.503173    2.213794
C       0.427050    0.508738    3.400168
O       0.837931    1.355843    4.448366
C       2.747370    0.106317    2.694650
C       3.809088   -0.238004    3.144261
H       0.160820    2.097032    0.248954
H      -0.929167    1.469357   -0.998097
H      -1.401111    1.370922    0.704177
H       1.615904   -1.080180   -0.950497
H       1.983994    0.660067   -0.511297
H       0.819646   -1.458171    1.451355
H       1.492843    1.529845    1.836745
H      -0.539255    0.886714    3.054017
H       0.279915   -0.528174    3.741674
H       1.716559    1.063593    4.720375
H       4.760910   -0.535381    3.510127
