15

C       0.039906    1.494190    0.064889
C       1.362710    0.776306    0.039458
N       1.911963    0.572092    1.377553
C       1.157948   -0.317937    1.870214
O       0.689891   -0.589306    3.129610
C      -0.630265   -0.867011    2.509779
C       0.035750   -0.926511    1.092504
C       0.015416   -0.007056   -0.103417
H      -0.258977    1.946035    1.005764
H      -0.241975    2.064107   -0.814507
H       2.058299    0.918594   -0.778512
H      -1.052055   -1.795513    2.896146
H      -1.298351   -0.019085    2.677665
H       0.199293   -1.967804    0.804097
H      -0.292069   -0.400031   -1.063907
