14

C      -0.074859    1.750921    0.230015
C      -0.158781    0.277569   -0.166610
O       0.411827    0.139901   -1.455287
C       0.156871   -1.003264   -2.144294
O       0.631098   -1.213501   -3.214756
C       0.567063   -0.639928    0.824342
O       1.400764   -1.446982    0.513191
C       0.134665   -0.494679    2.228906
N      -0.227949   -0.378461    3.320753
H       0.966316    2.082989    0.233176
H      -0.628663    2.348639   -0.496337
H      -0.505618    1.912344    1.220636
H      -1.213738   -0.041905   -0.169493
H      -0.543889   -1.678218   -1.618693
