11

N       0.039722    1.380381    0.127405
C      -0.057649    0.039848    0.043317
C      -1.111012   -0.850020    0.024553
N      -2.460999   -1.009865    0.031279
N      -2.818438   -2.170872   -0.002212
O      -1.414656   -3.082816   -0.042699
C      -0.513483   -2.141618   -0.021453
N       0.799362   -2.118149   -0.033141
O       1.066224   -0.667790    0.007781
H       0.937100    1.797275   -0.062862
H      -0.775508    1.935662   -0.070713
