21

C       0.179571    1.608350    0.091014
C       0.091007    0.081175    0.062588
C       0.558571   -0.515302   -1.279484
C       0.501515   -2.002796   -1.325584
C      -0.237073   -2.894056   -2.040316
C       0.159806   -4.212062   -1.618125
C      -0.363403   -5.524116   -2.113687
C       1.114177   -4.007787   -0.673164
O       1.336483   -2.676285   -0.480633
H       1.208757    1.949216   -0.068348
H      -0.441342    2.057487   -0.692473
H      -0.157819    2.007829    1.052321
H       0.698868   -0.344818    0.868547
H      -0.940556   -0.238866    0.252495
H      -0.061976   -0.126650   -2.094543
H       1.585299   -0.179233   -1.480030
H      -0.979164   -2.649370   -2.785661
H      -0.198532   -5.642272   -3.190871
H       0.126840   -6.361333   -1.608797
H      -1.442052   -5.618096   -1.942793
H       1.708584   -4.675068   -0.070154
