19

C       0.021543    1.481659    0.026016
O       1.468201    1.467765    0.083918
C       1.515457    0.038025   -0.121441
C       1.677598   -0.750845    1.195982
C       0.115286   -0.817576    1.317509
C      -0.518459   -2.143631    1.001401
C      -1.087705   -2.168858   -0.205524
C      -0.962447   -0.852787   -0.944364
C      -0.038376   -0.045377   -0.037195
H      -0.429527    1.965641    0.902057
H      -0.335027    1.987325   -0.882703
H       2.120027   -0.235996   -0.992160
H       2.148096   -1.731055    1.079368
H       2.198044   -0.188475    1.974360
H      -0.299912   -0.349338    2.216966
H      -0.497972   -2.977996    1.695195
H      -1.602493   -3.023621   -0.631397
H      -0.552250   -0.972758   -1.955697
H      -1.941741   -0.367148   -1.070374
