21

C       0.066854    1.530749   -0.017957
C      -0.085017    0.007960    0.051802
C      -1.518011   -0.505980   -0.183591
C      -2.041172   -0.172550   -1.588643
C      -1.580056   -2.017963    0.077021
C      -2.981686   -2.577435    0.256255
O      -3.981374   -1.894247    0.316618
C      -3.052548   -4.027155    0.380143
C      -3.089346   -5.226317    0.479496
H       1.089292    1.830756    0.231973
H      -0.153208    1.920504   -1.016088
H      -0.607389    2.027029    0.689081
H       0.590783   -0.461473   -0.677105
H       0.251636   -0.334673    1.039195
H      -2.180518   -0.023616    0.546542
H      -3.056071   -0.552720   -1.725747
H      -2.068618    0.906636   -1.761188
H      -1.398947   -0.617175   -2.359381
H      -1.087048   -2.584216   -0.725579
H      -1.026283   -2.283029    0.989901
H      -3.142324   -6.284277    0.568796
