15

N      -0.199956   -1.082455   -0.202843
C      -0.076152    0.050700   -0.021383
C       0.042983    1.489844    0.227564
O       1.275789    1.945630   -0.279340
C       1.448430    3.335193   -0.132815
C       1.938392    3.862425    1.238557
O       3.120114    4.420177    0.631403
C       2.811282    3.820133   -0.644195
H      -0.804535    2.002797   -0.255583
H      -0.044529    1.664669    1.311464
H       0.582655    3.875026   -0.539412
H       1.328402    4.627996    1.731049
H       2.174134    3.060444    1.951184
H       3.485206    2.992016   -0.894756
H       2.805440    4.553559   -1.457032
