19

C      -0.245610    1.639303   -0.054511
C       0.004824    0.137493   -0.075432
C       0.587964   -0.559626   -1.310268
C       2.047715   -0.245913   -1.599265
C       2.761453    1.059389   -1.469345
O       3.444538    1.502183   -2.363579
C       1.695253   -1.200722   -0.475952
C       1.173845   -0.502560    0.775145
O       2.111768    0.339983    1.411447
H       0.647957    2.220539   -0.289274
H      -1.018180    1.907956   -0.782823
H      -0.600764    1.959485    0.932076
H      -0.924403   -0.374228    0.199177
H      -0.006061   -1.017504   -2.092529
H       2.386252   -0.766797   -2.492357
H       2.663228    1.584535   -0.503509
H       2.071404   -2.216249   -0.498755
H       0.773248   -1.235306    1.487113
H       1.710871    0.691924    2.213024
