14

C      -0.009199    1.436893   -0.003515
O       0.013316    0.000592   -0.022613
C       0.593148   -0.626722   -1.037417
C       0.643420   -1.982870   -1.108753
C       1.287926   -2.591705   -2.237679
O       1.422649   -3.785905   -2.459358
C       1.821615   -1.577949   -3.191573
N       1.760833   -0.301776   -3.100862
O       1.108769    0.203683   -1.957424
H       1.004806    1.843547    0.011436
H      -0.547171    1.830942   -0.869023
H      -0.532810    1.696422    0.915746
H       0.201580   -2.577901   -0.321899
H       2.329978   -1.936462   -4.083263
