20

O       0.111177   -0.077852   -0.020887
C       0.017018    1.136611    0.001519
C      -1.338443    1.821466    0.183521
C      -1.479794    2.968647    1.205024
C      -0.446573    4.102259    1.101120
C       0.155645    4.279569   -0.324329
C       1.310995    3.327818    0.096604
C       0.972868    3.677306    1.577020
N       1.117084    1.927108   -0.245231
H      -1.637082    2.184895   -0.807565
H      -2.031261    1.017077    0.437464
H      -2.485876    3.384800    1.077071
H      -1.447821    2.559111    2.222456
H      -0.847864    5.004908    1.569072
H      -0.441941    4.001978   -1.194594
H       0.538604    5.292283   -0.473502
H       2.307100    3.599400   -0.257473
H       1.557041    4.529437    1.935346
H       1.044671    2.860982    2.301361
H       1.957447    1.370784   -0.320636
