18

C      -0.348232    1.457395   -0.006438
C       0.025033   -0.004157    0.027230
C      -0.633509   -0.936825    1.038485
C       0.832496   -0.629312    1.130801
O       1.692967   -1.631909    0.608873
C       1.493017   -1.759452   -0.734550
O       1.992940   -2.631200   -1.383940
C       0.538316   -0.655860   -1.241903
N      -0.487219   -1.113224   -2.171237
H       0.481962    2.067433   -0.379776
H      -1.206139    1.617883   -0.667255
H      -0.615290    1.825454    0.988970
H      -1.296544   -0.475179    1.762027
H      -0.910083   -1.948419    0.756709
H       1.278220   -0.089339    1.956303
H       1.166859    0.069373   -1.778161
H      -0.036325   -1.653229   -2.906725
H      -1.111017   -1.759517   -1.694460
