14

N       0.023796   -1.201227   -0.092609
C       0.013232   -0.047146   -0.025934
C       0.027462    1.407380    0.071327
C      -0.091031    2.098813    1.424091
C       1.269396    2.217889    2.027270
C       2.284179    1.595949    1.084613
C       1.375226    2.175012   -0.013101
N       0.813399    3.221673    1.000019
H      -0.692665    1.836451   -0.630495
H      -1.001598    2.280243    1.981731
H       1.400978    2.501584    3.064729
H       3.232269    2.136697    1.125849
H       2.462116    0.517197    1.105830
H       1.757088    2.500741   -0.977264
