18

C       0.007873    1.326634   -0.032687
C       1.397208    0.716660   -0.041814
C       1.762360    0.240841    1.378027
C       0.511666   -0.714530    1.368099
C       0.170054   -0.161708   -0.010146
O      -0.210625   -0.944088   -1.100504
C       0.634301   -0.848406   -2.179336
N       1.684261   -0.168843   -2.348618
C       2.237512    0.690084   -1.291562
H      -0.355526    1.859851    0.842528
H      -0.325507    1.732050   -0.982567
H       2.703944   -0.311515    1.416948
H       1.778658    1.016655    2.149424
H       0.806356   -1.765119    1.327382
H      -0.241416   -0.585416    2.151170
H       0.256388   -1.485967   -2.975608
H       2.392194    1.684669   -1.728385
H       3.238204    0.305785   -1.058902
