14

C       0.001374    1.535763   -0.041740
C       0.000731    0.039435    0.011486
C      -0.061848   -0.826392   -1.039535
O      -0.041215   -2.116550   -0.624689
C       0.037517   -2.090011    0.743105
C       0.065565   -0.791864    1.174727
C       0.073770   -3.317600    1.426603
C       0.105564   -4.362849    2.024694
H       0.910932    1.952156    0.405152
H      -0.057005    1.893655   -1.073239
H      -0.848951    1.956510    0.506267
H      -0.122808   -0.679498   -2.106053
H       0.125534   -0.473133    2.203757
H       0.133569   -5.284240    2.551531
