17

N       0.032627    1.311680    0.225910
C       0.071652    0.001003   -0.114555
O       1.092751   -0.587566   -0.427431
C      -1.282165   -0.715960   -0.093334
O      -2.262473    0.196989    0.359498
C      -1.544783   -1.470575   -1.435929
C      -1.020078   -2.772072   -0.773971
C      -1.183766   -2.103147    0.616355
H       0.893438    1.831951    0.237594
H      -0.835924    1.741008    0.493311
H      -3.118142   -0.241307    0.340660
H      -2.621018   -1.508947   -1.637074
H      -1.029078   -1.101971   -2.324173
H      -1.589998   -3.685279   -0.956293
H       0.030251   -2.939547   -1.009515
H      -0.380632   -2.232129    1.343369
H      -2.140860   -2.348249    1.089077
