16

C      -0.170075    1.559947   -0.014879
C      -0.005969    0.048556   -0.022119
C       0.721225   -0.614943   -1.197704
N       2.127572   -0.136236   -1.146323
C       1.700326   -1.280007   -0.297863
C       1.088452   -0.602349    0.936254
O       1.934377    0.250096    1.654493
H       0.765851    2.056746   -0.282094
H      -0.935936    1.874500   -0.732240
H      -0.469313    1.913077    0.976766
H      -0.966267   -0.447827    0.152152
H       0.300036   -0.969798   -2.130707
H       2.617470   -0.518223   -1.953159
H       2.194741   -2.240845   -0.374542
H       0.645548   -1.299460    1.650679
H       2.461032    0.709031    0.985397
