21

C      -0.035322    1.614896   -0.218368
C       0.028832    0.095745   -0.036042
C       0.763001   -0.636253   -1.187254
C       1.291897   -1.954526   -0.581870
C       1.555093   -1.636456    0.881869
C       2.268836   -0.374095    1.227352
C       0.749000   -0.368678    1.228675
C       0.060343   -0.320197    2.536092
O       0.574762   -0.569932    3.602413
H       0.970227    2.048832   -0.244509
H      -0.538316    1.876540   -1.155245
H      -0.584048    2.095607    0.598247
H      -1.000487   -0.287972    0.021882
H       0.113961   -0.801127   -2.051426
H       1.597080   -0.018546   -1.538827
H       0.531468   -2.741307   -0.646376
H       2.181656   -2.324664   -1.102897
H       1.580669   -2.441934    1.607467
H       2.720214   -0.322135    2.211582
H       2.779592    0.186600    0.451882
H      -1.020082   -0.050115    2.478067
