15

N      -0.077931    1.478857   -0.195204
C      -0.009992    0.080991   -0.051667
C      -0.273395   -0.848765   -1.228646
C      -1.129165   -0.992172   -0.011413
O      -0.369176   -1.748361    0.984639
C       0.583831   -0.734236    1.058771
N       1.534151   -0.563016    1.856008
C      -2.533932   -0.912646    0.102107
C      -3.730810   -0.837468    0.196872
H      -0.076093    1.942194    0.707049
H       0.703890    1.835879   -0.734295
H      -0.746110   -0.343466   -2.064653
H       0.420483   -1.644921   -1.479983
H       1.599988   -1.325476    2.532294
H      -4.787557   -0.773301    0.282014
