24

C      -0.001862    0.885717    0.865361
O       0.927247    0.146513    0.108735
C       0.468706   -0.250084   -1.179608
C       1.701495   -0.417602   -2.058469
C      -0.366128   -1.538165   -1.070799
N      -0.965031   -1.870228   -2.359071
C      -0.407308   -2.982804   -3.123929
C      -1.754363   -3.097019   -2.498469
C      -2.011120   -4.043439   -1.346133
H      -0.314530    1.802771    0.341631
H      -0.906897    0.311745    1.115197
H       0.493342    1.166415    1.798777
H      -0.175937    0.535289   -1.604336
H       1.415303   -0.710456   -3.071475
H       2.259598    0.521115   -2.107624
H       2.363033   -1.185284   -1.642859
H       0.277597   -2.333512   -0.661226
H      -1.176629   -1.374128   -0.351576
H      -0.293367   -2.824076   -4.193595
H       0.397310   -3.557482   -2.664812
H      -2.618634   -2.958587   -3.147939
H      -1.113131   -4.229346   -0.752083
H      -2.785660   -3.651386   -0.677195
H      -2.364242   -5.007615   -1.727005
