19

C      -0.089150    1.525850   -0.182562
C      -0.020955    0.027972    0.001639
C       1.267888   -0.720794   -0.221014
C       0.712619   -0.601765    1.178865
C       1.382782    0.207888    2.218041
C       2.642084    0.757191    2.225495
N       2.759458    1.403398    3.437996
C       1.588400    1.214562    4.107240
N       0.738641    0.503034    3.406805
H       0.829554    2.008423    0.163332
H      -0.230344    1.786229   -1.237615
H      -0.921098    1.956388    0.385279
H      -0.925155   -0.499454   -0.291030
H       1.243495   -1.691830   -0.703446
H       2.144818   -0.129971   -0.467658
H       0.233725   -1.490084    1.580633
H       3.448809    0.738249    1.512544
H       3.564020    1.909991    3.766184
H       1.417889    1.617439    5.094778
