20

O      -0.541159    1.487130   -0.554056
C      -0.015163    0.283607    0.011223
C      -1.078981   -0.813937    0.269191
C      -0.918334   -1.854139   -0.865645
C       0.451881   -1.531718   -1.422707
C       0.951607   -0.400884   -0.928611
N      -0.986307   -3.223971   -0.353095
C      -2.318565   -3.817690   -0.282226
C      -1.346541   -4.257689   -1.319536
H      -0.813583    1.283684   -1.455800
H       0.456030    0.615208    0.941807
H      -0.868845   -1.322612    1.214374
H      -2.078716   -0.377849    0.330898
H      -1.683576   -1.708667   -1.654403
H       0.934827   -2.173276   -2.152181
H       1.901618    0.046018   -1.200368
H      -2.515654   -4.434554    0.589517
H      -3.163918   -3.218172   -0.617155
H      -1.546475   -3.952659   -2.346031
H      -0.819751   -5.202291   -1.220648
