19

O      -0.114194    1.399189    0.053143
C      -0.001446   -0.013162    0.020300
C       0.518110   -0.611106    1.343670
C      -0.614030   -0.274947    2.340733
C      -1.907777   -0.277761    1.472250
C      -1.413895   -0.615379    0.047771
O      -1.272053   -2.023080   -0.179238
C      -0.529774   -2.666302    0.828394
O       0.683896   -2.018506    1.131344
H       0.773214    1.771079    0.072925
H       0.572710   -0.368625   -0.842695
H       1.498838   -0.240455    1.653498
H      -0.638223   -0.995787    3.161745
H      -0.434262    0.712036    2.771393
H      -2.655472   -1.000089    1.809227
H      -2.376462    0.707844    1.463345
H      -2.066512   -0.244256   -0.743653
H      -1.139574   -2.772183    1.740473
H      -0.272204   -3.657184    0.447855
