18

C      -0.020789    1.376454   -0.329553
C       1.435756    1.545486    0.138085
C       1.266639    0.129286    0.745350
O      -0.082263    0.035433    0.202777
C       2.188314   -0.975967    0.294165
C       2.676850   -1.679227    1.319359
C       2.182060   -1.132806    2.616828
N       2.624686    0.279406    2.844746
C       1.294276    0.001377    2.267001
H      -0.753945    2.039385    0.147079
H      -0.185385    1.392108   -1.413279
H       2.173883    1.607065   -0.663021
H       1.631761    2.333407    0.865920
H       2.425904   -1.122728   -0.753339
H       3.373853   -2.505703    1.247898
H       2.020433   -1.770812    3.478507
H       2.503379    0.502212    3.832704
H       0.394274    0.243806    2.821566
