25

C      -0.213341    1.587697   -0.088556
C       0.017913    0.087367    0.021721
C       1.036358   -0.618216   -0.917193
C       1.317247   -1.621755    0.235424
C       2.699331   -2.230134    0.475359
C       3.709429   -1.240311    1.076016
C       3.107423   -0.503827    2.280416
C       1.892512    0.325497    1.839938
C       0.778667   -0.547049    1.235385
H       0.719548    2.156042   -0.023102
H      -0.678279    1.834418   -1.049881
H      -0.880711    1.949715    0.702071
H      -0.947127   -0.425334   -0.070972
H       0.670583   -1.020131   -1.866309
H       1.898913    0.024182   -1.125645
H       0.581803   -2.430655    0.160759
H       2.590204   -3.069990    1.175466
H       3.087318   -2.659958   -0.456951
H       4.620436   -1.776268    1.364818
H       4.012877   -0.500747    0.322354
H       2.810941   -1.232985    3.047844
H       3.856951    0.148956    2.741953
H       1.492247    0.908084    2.677289
H       2.245742    1.058923    1.104762
H       0.146017   -0.935254    2.040769
