25

C       0.191426    1.540301   -0.172798
C       0.025356    0.027009    0.020322
C       0.641346   -0.417565    1.348390
O       2.030457   -0.117147    1.329297
C      -1.441020   -0.431990   -0.057027
C      -2.108161   -0.222280   -1.423875
C      -3.523939   -0.757946   -1.474807
C      -4.678162    0.089745   -0.998461
C      -4.517413   -0.214108   -2.468777
H       1.234828    1.826996   -0.024911
H      -0.111421    1.858705   -1.174144
H      -0.418551    2.092776    0.553207
H       0.590160   -0.485999   -0.771388
H       0.134971    0.101431    2.179984
H       0.476183   -1.498226    1.487253
H       2.395608   -0.325406    2.193681
H      -1.492577   -1.500649    0.193983
H      -2.028655    0.088380    0.712307
H      -2.124855    0.845237   -1.675393
H      -1.502138   -0.709690   -2.200610
H      -3.605316   -1.821941   -1.262739
H      -5.489146   -0.387003   -0.458880
H      -4.458621    1.099160   -0.664701
H      -4.192107    0.591400   -3.119448
H      -5.217190   -0.901037   -2.932042
