18

O      -0.318940    0.082408   -0.011713
C      -0.081032    1.263192   -0.017478
C       1.315233    1.852208   -0.071730
C       1.484935    2.789385   -1.267387
O       0.602185    3.933697   -1.196289
C       1.699261    4.873783   -1.307294
C       2.698871    3.723501   -1.305511
C       4.022111    3.572873   -0.669424
N       3.882548    3.645791   -2.140311
H      -0.894953    2.018484    0.012899
H       1.483211    2.430030    0.846285
H       2.037499    1.030771   -0.115446
H       1.332396    2.236381   -2.206787
H       1.665002    5.442823   -2.243712
H       1.734398    5.564047   -0.456574
H       4.509950    4.431008   -0.214690
H       4.266879    2.617393   -0.211624
H       3.972566    2.720114   -2.553917
