14

N       0.011571    1.381699    0.139406
C      -0.067183    0.017201    0.052130
C      -1.216938   -0.728884    0.030064
C      -1.138065   -2.143459   -0.006196
F      -2.279815   -2.842438   -0.020740
C       0.052118   -2.786828   -0.023844
N       1.198156   -2.017153   -0.011550
C       1.249557   -0.639906    0.015555
O       2.309720   -0.018503    0.000065
H       0.934539    1.739831   -0.067513
H      -0.768814    1.932817   -0.176558
H      -2.196670   -0.263562    0.046912
H       0.161287   -3.860414   -0.048097
H       2.101763   -2.467183   -0.041497
