19

C      -0.093719    1.604685   -0.082636
C       1.408115    1.268998   -0.008242
C       1.197405    0.132852    1.028330
C      -0.056432    0.069435    0.038312
C       1.230584   -0.060331   -0.849331
C       1.879196   -0.245498   -2.206409
C       3.299809   -0.561371   -1.707208
C       3.370065   -0.860558   -0.399511
C       1.977254   -0.908218    0.182424
H      -0.513220    2.151331    0.768175
H      -0.470114    2.015525   -1.024906
H       2.267427    1.937848   -0.059487
H       1.126585    0.251374    2.112189
H      -0.881364   -0.643038    0.095812
H       1.472389   -1.084442   -2.788656
H       1.844402    0.643068   -2.846138
H       4.149558   -0.552597   -2.382934
H       4.284242   -1.139301    0.113849
H       1.627158   -1.941707    0.319067
