18

C       0.051243   -1.100148   -0.380549
C       0.069882    0.080330   -0.161654
C       0.057568    1.512210    0.108928
O       1.363180    2.038925   -0.003272
C       1.405675    3.430837    0.259257
C       2.830098    3.900794    0.174474
C       3.433851    4.230652   -1.165106
C       3.116785    5.336316   -0.190571
H       0.042643   -2.143977   -0.575360
H      -0.626166    2.015247   -0.597521
H      -0.349393    1.694203    1.119240
H       0.781979    3.977410   -0.470309
H       0.986577    3.637972    1.259518
H       3.489457    3.441536    0.904821
H       4.473039    3.973536   -1.335358
H       2.801457    4.126863   -2.040431
H       2.274317    5.983495   -0.412472
H       3.936419    5.836493    0.312648
