20

C      -1.301323    1.461315   -0.664178
C      -0.131650    0.533895   -0.289210
C      -0.577720   -0.565878    0.564284
C      -0.961247   -1.471695    1.256137
C       0.547618   -0.006480   -1.579949
O      -0.011722    0.112967   -2.655630
N       1.778796   -0.589531   -1.450160
C       2.461558   -1.053339   -2.648288
C       2.521889   -0.747535   -0.213468
H      -0.938559    2.302461   -1.258997
H      -2.036942    0.920081   -1.259615
H      -1.778675    1.840962    0.242467
H       0.610135    1.122150    0.266208
H      -1.302799   -2.270474    1.866868
H       3.417802   -0.529546   -2.773636
H       2.667258   -2.128737   -2.580492
H       1.823150   -0.857231   -3.507346
H       2.930908   -1.763546   -0.162572
H       3.365468   -0.044898   -0.159653
H       1.886008   -0.612701    0.658092
