17

C       0.050916    1.475595   -0.066584
O       1.494785    1.372779    0.010407
C       1.422439   -0.030587    0.388896
C       1.713107   -1.047757   -0.683832
C       0.585624   -2.092226   -0.617770
O      -0.194384   -2.251189    0.558165
C      -0.932312   -1.025851    0.754599
C      -0.082859   -0.040575   -0.015769
C       0.321672   -0.812218   -1.300502
H      -0.359662    1.995600    0.810821
H      -0.286019    1.981815   -0.977626
H       1.784913   -0.186217    1.409765
H       2.654477   -1.256113   -1.180946
H       0.734593   -3.020750   -1.154743
H      -1.956909   -1.128796    0.367499
H      -0.973561   -0.824349    1.829520
H      -0.007110   -0.638936   -2.316694
