20

C      -0.179581    1.344599   -0.106302
N       0.141511   -0.049556    0.115551
C       0.712074   -0.668044   -0.816150
O       1.074943   -1.962122   -0.663505
C       1.567747   -2.641460   -1.800952
C       2.448272   -3.847284   -1.447447
O       1.569128   -4.750715   -2.144409
C       0.626111   -3.692916   -2.455604
C      -0.732962   -3.909883   -1.823148
H       0.107675    1.719326   -1.102633
H      -1.257140    1.497450    0.021424
H       0.320276    1.961278    0.649249
H       0.977637   -0.236603   -1.794796
H       2.011309   -1.931097   -2.505715
H       3.462219   -3.847116   -1.863362
H       2.493114   -4.048258   -0.370605
H       0.533946   -3.576001   -3.543848
H      -0.656887   -3.957392   -0.734745
H      -1.415564   -3.094719   -2.086137
H      -1.160543   -4.847451   -2.190593
