20

C      -0.026201    1.537523    0.007350
C       0.001187   -0.003228   -0.013243
C      -1.440877   -0.546575    0.000698
C       0.815219   -0.551799   -1.230593
C       1.968219   -1.333584   -0.622778
C       1.854214   -1.261775    0.832740
C       0.781879   -0.536706    1.172632
N       2.839500   -1.920063   -1.351853
O       3.808133   -2.578036   -0.567537
H       0.987398    1.949934   -0.008312
H      -0.566301    1.926380   -0.862925
H      -0.528553    1.911290    0.906411
H      -1.998927   -0.184766   -0.869917
H      -1.449977   -1.640757   -0.019277
H      -1.976504   -0.221176    0.899359
H       0.202757   -1.196701   -1.867552
H       1.187315    0.257902   -1.865108
H       2.555093   -1.738823    1.502574
H       0.467331   -0.327308    2.190821
H       4.380266   -2.962430   -1.239277
