20

C      -0.541463    1.273957   -0.024351
C       0.031222   -0.144772   -0.000702
C       1.016449   -0.406612   -1.135341
N       0.860108   -0.036372   -2.331292
O       2.100266   -1.111018   -0.677825
C       2.060441   -1.191790    0.735879
C       2.142815    0.117984    1.468353
C       0.798379   -0.563487    1.250983
C       0.028262   -1.106696    2.429887
H       0.239256    2.017243    0.162798
H      -0.975352    1.480422   -1.005212
H      -1.317226    1.393784    0.738024
H      -0.798330   -0.853193   -0.135480
H       1.652663   -0.325901   -2.906623
H       2.499591   -2.108041    1.110861
H       2.541289    0.108057    2.477467
H       2.400570    0.999088    0.889033
H      -0.597203   -0.330883    2.885975
H      -0.628611   -1.930409    2.127631
H       0.701645   -1.482421    3.206631
