19

C      -0.423338    1.381472   -0.028211
C      -0.005745   -0.074563    0.046090
O       1.141597   -0.371832   -0.800537
C       2.012123   -0.596960    0.328239
C       2.792483   -1.898826    0.222908
C       2.927329    0.548106    0.507052
N       3.620199    1.461900    0.654111
C       0.793554   -0.544216    1.306398
N       0.943178    0.222177    2.511197
H       0.401669    2.054090    0.224146
H      -0.753585    1.622468   -1.042764
H      -1.256324    1.575693    0.656370
H      -0.845004   -0.726208   -0.224822
H       3.481459   -1.866127   -0.625342
H       3.370544   -2.069107    1.135902
H       2.094637   -2.727080    0.077165
H       0.511014   -1.563445    1.582174
H       1.120406    1.203432    2.326193
H       0.124772    0.151654    3.104384
