21

C      -0.070340    1.443853   -0.115884
C       1.301878    0.803367   -0.006986
C       2.172701    0.350152   -1.176404
C       1.448973   -0.882923   -1.712584
C       0.927940   -2.020677   -0.812742
C       1.004370   -2.057741    0.729307
C      -0.051853   -1.010434    1.204219
C       0.039547   -0.040810    0.040631
C       0.027003   -0.887476   -1.224491
H      -0.384863    2.052951    0.726338
H      -0.416154    1.812971   -1.077672
H       1.807111    0.981318    0.937528
H       2.264250    1.101024   -1.972434
H       3.191269    0.135017   -0.831552
H       1.665746   -1.193175   -2.731749
H       0.856660   -2.975742   -1.322714
H       0.784163   -3.065312    1.094750
H       1.999176   -1.792432    1.104187
H      -1.042124   -1.474933    1.287677
H       0.192130   -0.560288    2.171502
H      -0.853878   -0.978067   -1.850757
