16

C       0.069789    1.565855    0.081973
C       0.058634    0.070809    0.054711
C       0.004049   -0.756723   -1.021225
O      -0.053895   -0.460645   -2.333605
O       0.010787   -2.055599   -0.685301
C       0.074995   -2.112641    0.730363
N       0.096089   -3.339811    1.368802
C       0.104062   -0.831509    1.182561
O       0.166164   -0.469521    2.490711
H       0.978444    1.966530    0.551000
H       0.028047    1.965564   -0.934157
H      -0.788952    1.978442    0.628337
H      -0.081271   -1.291365   -2.822423
H       0.909222   -3.906169    1.151981
H      -0.740677   -3.895424    1.227121
H       0.174464    0.491229    2.538791
