17

C       0.014854    1.376382   -0.133596
N       0.033108   -0.073875   -0.108586
C      -1.094728   -0.651071    0.013404
N      -2.391883   -0.166249    0.150179
N      -3.343381   -1.209470    0.122271
C      -2.609963   -2.271060    0.126972
O      -3.052364   -3.531680    0.178411
N      -1.264621   -2.039047    0.093036
C      -0.182887   -2.998378    0.051871
H       1.041248    1.752128   -0.150957
H      -0.490742    1.781488   -1.027428
H      -0.486023    1.811680    0.746690
H      -2.677563    0.691042   -0.294371
H      -4.016277   -3.490617    0.233016
H       0.067079   -3.280065   -0.976829
H       0.692952   -2.531029    0.505133
H      -0.468193   -3.891512    0.609830
