20

C       0.033703    1.443243    0.036193
C      -0.091152   -0.043958   -0.040065
C       0.446346   -0.925459   -1.113320
N       1.054384   -0.975446    0.266049
C      -0.034460   -2.012747    0.557485
C      -1.187577   -0.962794    0.552873
C      -1.855241   -1.689832   -0.639755
C      -0.419380   -2.198086   -0.953705
C      -0.126851   -3.415599   -1.790742
H       0.985837    1.768362   -0.394623
H      -0.776555    1.934372   -0.515174
H      -0.001577    1.791781    1.074043
H       1.011421   -0.585714   -1.974749
H       0.130449   -2.803976    1.286829
H      -1.732012   -0.632719    1.435788
H      -2.505530   -2.506637   -0.307268
H      -2.371487   -1.087986   -1.395090
H      -0.397759   -3.246909   -2.840025
H       0.938296   -3.669964   -1.759595
H      -0.692195   -4.284799   -1.437992
