19

O       0.212626    1.251844    0.488909
C       0.040701   -0.101186    0.102039
C      -1.445687   -0.503004    0.042862
C      -2.309439    0.062361   -1.050023
C      -1.972436    0.690871   -2.177970
C      -0.589734    1.059931   -2.667035
O      -0.161243    2.329938   -2.096141
C       0.499249    0.051249   -2.379549
C       0.781742   -0.446725   -1.177004
H       0.122947    1.800528   -0.307766
H       0.480516   -0.688119    0.916770
H      -1.515015   -1.601607   -0.003275
H      -1.891707   -0.222569    1.006274
H      -3.375063   -0.091325   -0.880959
H      -2.780368    1.014135   -2.832422
H      -0.646393    1.194118   -3.754995
H      -0.915064    2.930590   -2.141650
H       1.110541   -0.236773   -3.230052
H       1.618516   -1.134780   -1.084999
