20

C      -0.018268    1.561988   -0.027917
C       0.038157    0.034011   -0.023818
C       0.701331   -0.534220    1.238996
N      -0.078772   -0.255584    2.457212
C      -0.315524   -1.381817    3.012550
C      -1.085523   -1.580424    4.276376
N       0.220713   -2.486428    2.343481
C       0.865502   -2.055145    1.186987
N       1.456358   -2.711021    0.273410
H       0.988729    1.993602   -0.004155
H      -0.518113    1.932017   -0.928360
H      -0.561330    1.932443    0.845507
H      -0.974234   -0.381073   -0.100410
H       0.600319   -0.342527   -0.884899
H       1.693178   -0.074591    1.347433
H      -1.425469   -0.612538    4.644182
H      -1.954904   -2.226375    4.109224
H      -0.463404   -2.056977    5.042264
H       0.089192   -3.449161    2.605496
H       1.437713   -3.717266    0.447856
