16

O      -0.212155    0.089086    0.586345
C      -0.100438    1.227044    0.218530
C       1.236551    1.876560   -0.148141
N       2.292462    0.896844   -0.155909
C       3.205436    0.653594   -1.147716
O       3.969416   -0.289011   -1.094052
C       3.225128    1.633379   -2.315046
C       2.037770    2.544459   -2.401445
C       1.138663    2.653755   -1.430081
H      -0.970829    1.917365    0.162553
H       1.391702    2.610431    0.671389
H       2.209075    0.150892    0.522401
H       4.155322    2.215025   -2.248602
H       3.331810    1.030754   -3.223639
H       1.934594    3.143536   -3.302286
H       0.299722    3.338542   -1.508612
