27

C      -0.058584    1.540502    0.449642
C       0.020677    0.051058    0.099937
C      -1.354627   -0.631619    0.123627
C      -1.342018   -2.157357   -0.081502
C      -0.695248   -2.549247   -1.408684
C      -0.825074   -2.913815    1.187538
C      -2.291861   -3.136992    1.634956
C      -2.749117   -2.816906    0.187633
C      -4.046152   -2.051179   -0.035428
H       0.928767    2.012107    0.418264
H      -0.706306    2.078178   -0.252033
H      -0.467900    1.690485    1.455051
H       0.475961   -0.060667   -0.890802
H       0.696284   -0.451758    0.803662
H      -1.835468   -0.400810    1.083662
H      -1.988701   -0.171160   -0.646703
H       0.361920   -2.266869   -1.450051
H      -0.750387   -3.632339   -1.561861
H      -1.199793   -2.067075   -2.255385
H      -0.327946   -3.852323    0.924381
H      -0.171785   -2.359745    1.867077
H      -2.555117   -4.117307    2.040283
H      -2.626218   -2.374727    2.346049
H      -2.791079   -3.752180   -0.384200
H      -4.074296   -1.116569    0.533583
H      -4.194278   -1.803538   -1.092902
H      -4.904435   -2.654114    0.282476
