16

O      -0.082974   -0.076519   -0.374062
C      -0.080059    1.111097   -0.124485
C      -1.348243    1.935213    0.051051
C      -1.439537    2.539456    1.453161
O      -0.683525    3.734243    1.710680
C       0.538965    4.052249    1.241623
O       1.083210    5.036169    1.664499
C       1.182976    3.259481    0.096765
N       1.071968    1.812687    0.112765
H      -1.428921    2.722983   -0.707269
H      -2.188294    1.252483   -0.090538
H      -2.469548    2.843644    1.653522
H      -1.159793    1.790352    2.202835
H       0.792207    3.686312   -0.839385
H       2.238889    3.522889    0.139864
H       1.920281    1.279579   -0.009816
