20

C       0.131816    1.438936   -0.191165
C      -0.022855   -0.069350    0.005335
O       0.749626   -0.533991    1.109818
C      -1.480711   -0.497279    0.142201
C      -2.369675   -0.431481   -1.148623
C      -2.733209   -1.879600   -0.894657
C      -1.745792   -2.033827    0.242929
N      -3.625928   -2.595829   -1.435138
O      -3.656414   -3.880431   -0.856526
H       1.188408    1.702807   -0.286482
H      -0.394458    1.782050   -1.087669
H      -0.281604    1.984897    0.666441
H       0.408863   -0.589457   -0.860512
H       0.439267   -0.074358    1.898149
H      -1.943585    0.047639    0.973329
H      -3.195922    0.283520   -1.149686
H      -1.786035   -0.284618   -2.064961
H      -0.871750   -2.643510   -0.008679
H      -2.161930   -2.412738    1.179565
H      -4.371939   -4.303077   -1.343193
