19

C      -0.016686    1.571118   -0.034132
C       0.010383    0.048739    0.051750
C       0.546245   -0.572532   -1.286447
N       1.240297   -1.871952   -1.209612
C       1.203710   -2.367017   -0.059835
O       1.951010   -3.389370    0.485317
C       1.783646   -2.785817    1.819051
C       0.703760   -1.835347    1.248347
N       0.744376   -0.378827    1.273640
H       0.998217    1.973256   -0.138543
H      -0.593495    1.901213   -0.903864
H      -0.463593    2.001222    0.865665
H      -1.017340   -0.307883    0.202446
H      -0.286785   -0.647802   -1.995634
H       1.265274    0.121361   -1.743090
H       1.462733   -3.523954    2.555776
H       2.712584   -2.300997    2.134040
H      -0.302839   -2.173267    1.514982
H       1.714773   -0.078309    1.183601
