23

C       0.046419    1.542606   -0.008462
C       0.034353   -0.000956   -0.004040
C       0.653452   -0.610529   -1.275121
C      -0.079252   -0.265005   -2.554942
C       0.333359    0.914018   -3.404686
C       0.588558   -0.491463   -3.887844
C       0.784973   -0.476990    1.243484
C      -0.038212   -0.658731    2.506757
O       1.977197   -0.684695    1.225389
H       1.073373    1.914298   -0.083128
H      -0.521000    1.928992   -0.857873
H      -0.394861    1.952478    0.905915
H      -1.010740   -0.329194    0.081297
H       1.700569   -0.295577   -1.342012
H       0.678741   -1.701795   -1.157346
H      -1.147345   -0.472804   -2.529956
H      -0.437994    1.496892   -3.896551
H       1.188064    1.497505   -3.078465
H       1.613072   -0.849580   -3.882407
H      -0.009185   -0.871908   -4.708753
H      -0.692415    0.201588    2.682455
H      -0.691292   -1.532220    2.388592
H       0.617323   -0.814926    3.364392
