19

C       0.635701   -0.984556    0.310554
C       0.286387    0.160209    0.193370
C      -0.171740    1.545892    0.023245
C      -0.837252    2.134989    1.295512
C       0.313997    2.854032    2.004747
C       1.331595    1.986101    2.806960
C       2.415351    2.246365    1.719799
C       1.381892    3.057625    0.887096
O       0.895351    2.440831   -0.297247
H       0.951043   -1.993704    0.411928
H      -0.859019    1.571196   -0.829727
H      -1.602230    2.854632    0.989624
H      -1.313719    1.364777    1.905647
H      -0.020949    3.754218    2.522268
H       1.571657    2.379579    3.797160
H       1.038972    0.939310    2.913590
H       3.261719    2.846361    2.063903
H       2.795711    1.362403    1.205748
H       1.676630    4.074535    0.617088
