13

O      -0.083471    1.254697   -0.315040
C       0.011129   -0.034922   -0.019708
N       1.186470   -0.569283    0.005974
C       1.495997   -1.882059    0.179810
N       0.807751   -2.970116    0.023284
C      -0.538081   -3.002061   -0.192341
C      -1.497739   -2.050990   -0.016257
C      -1.345570   -0.639517    0.288091
O      -2.254938    0.081499    0.650080
H       0.818558    1.566732   -0.492193
H       2.546077   -2.028689    0.431576
H      -0.890627   -3.993529   -0.472692
H      -2.534906   -2.357705   -0.117996
