21

C      -0.046552    1.551356    0.025158
C      -0.044046    0.010251    0.029894
C       0.748177   -0.532360    1.235446
C      -1.436648   -0.535525    0.005806
C      -2.090589   -1.309611   -0.866153
C      -3.468390   -1.447593   -0.196158
C      -3.776325    0.027918    0.199484
C      -2.539774   -0.325758    1.078123
O      -3.094090   -1.676584    1.206698
H       0.977594    1.938366    0.016149
H      -0.568531    1.944650   -0.852244
H      -0.542513    1.947992    0.918295
H       0.458129   -0.329473   -0.885156
H       1.778749   -0.162671    1.215704
H       0.297707   -0.211584    2.181138
H       0.773069   -1.625518    1.230936
H      -1.767566   -1.742683   -1.801816
H      -4.207938   -2.143696   -0.589473
H      -3.681369    0.806976   -0.559903
H      -4.693344    0.128861    0.785314
H      -2.305500    0.160576    2.024501
