16

C      -0.025585    1.420580   -0.046115
N       0.043037   -0.016590    0.074771
C       0.662646   -0.643272    1.095156
N       1.252068    0.016547    2.059547
C       1.854502   -0.712563    3.052543
C       1.864414   -2.065106    3.075744
N       1.235663   -2.745363    2.046705
C       0.600777   -2.126112    1.001150
O       0.043729   -2.726325    0.089471
H       0.976124    1.861749   -0.103218
H      -0.578330    1.672955   -0.952621
H      -0.531574    1.866961    0.817579
H      -0.374473   -0.629056   -0.608577
H       2.336646   -0.147356    3.841359
H       2.330746   -2.664759    3.844387
H       1.220822   -3.755377    2.027674
