17

N      -0.220196    1.162760    0.011069
C      -0.361103   -0.065749    0.263002
O      -1.024961   -0.859233   -0.605113
C      -1.054141   -2.233767   -0.286232
C      -1.885246   -2.793111    0.828970
C      -3.176029   -1.982952    1.005503
C      -3.528133   -2.223586   -0.496416
C      -2.241833   -3.042847   -0.661095
H       0.291394    1.613293    0.767167
H       0.002652   -0.601909    1.149592
H      -0.095053   -2.724445   -0.439386
H      -1.460055   -3.469381    1.561963
H      -3.882431   -2.473306    1.677780
H      -3.052603   -0.944113    1.324379
H      -4.427706   -2.829374   -0.617543
H      -3.603251   -1.337600   -1.130631
H      -2.140160   -3.942851   -1.255901
