23

C      -0.066386    1.540340    0.045300
C       0.008166    0.004980   -0.002538
C       0.748009   -0.500595    1.257926
C      -1.428782   -0.566818   -0.006839
C       0.742466   -0.462983   -1.241962
C       1.287719    0.257463   -2.220911
C       1.914627   -0.633910   -3.251716
O       1.684712   -1.960680   -2.787625
C       0.972352   -1.927963   -1.556902
H       0.932437    1.987479    0.067370
H      -0.599615    1.940846   -0.822647
H      -0.599019    1.864925    0.945083
H       0.234012   -0.157865    2.162326
H       0.787685   -1.593484    1.294273
H       1.775370   -0.124096    1.288022
H      -1.979789   -0.238044   -0.893638
H      -1.430290   -1.660959    0.005235
H      -1.975420   -0.225340    0.878704
H       1.300814    1.336218   -2.302268
H       1.467886   -0.504089   -4.251103
H       2.997310   -0.457124   -3.360935
H       1.560175   -2.436618   -0.776667
H       0.029414   -2.487133   -1.662004
