23

C      -0.091336    1.572456    0.038486
C       0.027490    0.041854    0.072801
C       0.922490   -0.402444    1.238972
C      -1.372540   -0.601209    0.110747
C      -1.429684   -2.100264   -0.220717
O      -0.818591   -2.901000    0.801697
C      -1.727326   -3.884536    1.287257
C      -3.003799   -3.642256    0.533375
C      -2.831799   -2.643947   -0.323707
H       0.895907    2.043681   -0.011960
H      -0.671689    1.913432   -0.825829
H      -0.589089    1.946172    0.941591
H       0.507584   -0.276486   -0.864924
H       1.035396   -1.486816    1.268962
H       1.914936    0.054655    1.159447
H       0.489334   -0.087829    2.196504
H      -1.836947   -0.442501    1.093000
H      -2.010193   -0.089907   -0.623723
H      -0.878284   -2.262768   -1.164300
H      -1.321343   -4.893455    1.107598
H      -1.849646   -3.776922    2.376447
H      -3.903874   -4.223500    0.688454
H      -3.564405   -2.241997   -1.012222
