23

C       0.882216   -0.585425    1.193993
C      -0.000750   -0.014150    0.075418
C      -1.442906   -0.571670    0.038452
C      -2.242088    0.090341    1.163509
C      -2.081905   -0.618801   -1.421887
C      -1.208181   -1.898854   -1.666813
C      -1.579094   -2.149661   -0.166462
C      -3.098442   -2.299698   -0.317901
C      -3.427182   -1.299241   -1.141425
H       1.865587   -0.104649    1.190957
H       0.445427   -0.430439    2.185139
H       1.040929   -1.661112    1.066366
H      -0.071686    1.074276    0.198952
H       0.510296   -0.164274   -0.878330
H      -2.280765    1.175405    1.011090
H      -3.265682   -0.278677    1.223087
H      -1.767138   -0.081370    2.135324
H      -2.057469    0.245898   -2.087093
H      -1.604034   -2.618505   -2.385642
H      -0.150265   -1.717615   -1.860902
H      -1.045359   -2.866544    0.458234
H      -3.721649   -3.043083    0.158915
H      -4.392980   -0.999271   -1.522911
