18

O      -0.208335    0.398032    0.893061
C      -0.135468    1.432541    0.282328
C      -1.321306    2.285335   -0.193367
N      -0.778307    3.375716   -1.005123
C       0.647369    3.524647   -0.630174
C       0.872952    4.424114    0.566534
C       1.623375    3.844483    1.502700
C       2.045216    2.442051    1.125690
C       1.163583    2.155561   -0.110732
H      -2.050566    1.681533   -0.739750
H      -1.830459    2.668963    0.701790
H      -0.830177    3.118663   -1.984187
H       1.189200    3.901776   -1.504958
H       0.468168    5.428863    0.603847
H       1.937543    4.312050    2.429633
H       3.113786    2.402806    0.878235
H       1.879648    1.705184    1.919863
H       1.674500    1.556408   -0.870630
