25

C      -0.151064    1.569588   -0.004243
C      -0.011570    0.051691    0.029669
C       1.087992   -0.590004   -0.876665
C       2.095582   -0.284637    0.266538
C       0.859803   -0.584212    1.172239
C       0.774726   -0.130648    2.611538
C       0.644072   -2.087969    0.883070
C       0.855767   -2.105591   -0.671987
C      -0.282800   -2.721996   -1.482825
H       0.805265    2.094448    0.071260
H      -0.624838    1.888142   -0.939497
H      -0.784750    1.920959    0.817922
H      -1.011059   -0.388271   -0.068226
H       1.256032   -0.246484   -1.899640
H       2.966989   -0.941235    0.362745
H       2.419588    0.755965    0.306402
H       0.925337    0.950112    2.705600
H      -0.203593   -0.370045    3.045729
H       1.535808   -0.625976    3.226009
H       1.361938   -2.719748    1.416509
H      -0.362634   -2.415309    1.167478
H       1.777866   -2.645965   -0.917010
H      -1.236657   -2.215118   -1.303028
H      -0.074950   -2.668545   -2.557442
H      -0.419806   -3.777785   -1.224206
