12

O      -0.022321   -0.042110   -0.000412
C       0.017176    1.148859    0.009182
N       1.207899    1.913273    0.001821
C       1.271569    3.287673    0.012552
C       2.594084    3.620838    0.000039
C       3.269659    2.363452   -0.018183
N       2.427595    1.336488   -0.017032
C       4.679661    2.158177   -0.036158
N       5.830259    2.043354   -0.050388
H      -0.862960    1.816173    0.024787
H       0.377221    3.889936    0.027872
H       3.034697    4.603484    0.003114
