18

C       0.042802    1.445075    0.124248
C      -0.012864   -0.035661   -0.064668
C       0.587272   -0.944245   -1.167428
C       0.042429   -1.846195   -0.031005
C       0.188078   -3.312726    0.212741
O       0.635593   -0.903459    0.948419
C      -1.262399   -0.979369   -0.017695
C      -2.055604   -0.980971    1.197105
N      -2.718224   -0.983477    2.144466
H       1.083084    1.781690    0.155421
H      -0.463516    1.953315   -0.701945
H      -0.445226    1.727764    1.061386
H       0.097348   -0.977330   -2.144262
H       1.675039   -0.912199   -1.233644
H       1.246914   -3.584042    0.254203
H      -0.281972   -3.589364    1.160811
H      -0.286290   -3.881271   -0.592858
H      -1.893185   -1.015244   -0.909662
