19

O       0.033743    1.374281   -0.277506
C       0.063069   -0.020731   -0.057967
C      -1.341321   -0.557246    0.239376
O      -2.200974   -0.174618   -0.851024
C      -2.763127   -1.330003   -1.465263
C      -2.237720   -2.498511   -0.670402
C      -2.605854   -3.908504   -0.989333
O      -1.957739   -4.780937   -0.083987
C      -1.447077   -2.052246    0.300631
H      -0.669848    1.518532   -0.922325
H       0.472658   -0.562942   -0.925904
H       0.724787   -0.201117    0.796571
H      -1.709909   -0.065633    1.153316
H      -3.862880   -1.264750   -1.438756
H      -2.470308   -1.378363   -2.526702
H      -3.704206   -4.016416   -0.939452
H      -2.324704   -4.128480   -2.034991
H      -2.217616   -5.681658   -0.296603
H      -0.934949   -2.663495    1.030424
