20

O       0.029633   -0.071456   -0.011469
C      -0.006759    1.136531   -0.035101
C      -1.319975    1.924906   -0.050573
N      -1.353590    3.001614   -1.047564
C      -0.185446    3.880878   -0.950167
C       1.135430    3.134730   -1.069240
C       1.709410    2.917289   -2.450356
C       2.376728    3.873740   -1.487529
C       1.248369    2.004694   -0.050373
H      -2.145836    1.229546   -0.218076
H      -1.459525    2.375160    0.943983
H      -1.372465    2.585326   -1.974775
H      -0.261921    4.650926   -1.725239
H      -0.236721    4.396426    0.019777
H       2.205499    1.975310   -2.658999
H       1.182291    3.337875   -3.301321
H       2.295547    4.937538   -1.687520
H       3.322985    3.577147   -1.046749
H       1.352105    2.436579    0.957392
H       2.118722    1.367052   -0.226674
