16

O       0.126640   -0.054390   -0.030699
C       0.039487    1.122779    0.119679
O       1.087113    1.951975   -0.206784
C       0.909414    3.315659   -0.144299
N      -0.232348    3.845310   -0.185337
C      -0.291033    5.303685   -0.078642
C       0.989818    5.914561    0.482107
O       2.118267    5.405650   -0.216311
C       2.243793    4.015072   -0.047440
H      -0.818781    1.673577    0.524343
H      -0.499538    5.706634   -1.077358
H      -1.146931    5.566995    0.553377
H       1.004570    6.999352    0.350509
H       1.077433    5.695963    1.559168
H       2.707695    3.756954    0.920828
H       2.906088    3.640955   -0.834296
