19

C       0.327848    0.856291    0.487641
O      -0.400388   -0.076114   -0.298574
C       0.352903   -0.595654   -1.342983
C       1.422155   -1.657301   -1.094903
O       1.502952   -2.231391    0.175935
C       0.239624   -2.832794    0.512512
C      -0.581031   -2.952621   -0.788759
C       0.131972   -2.027855   -1.769172
O       0.113201   -2.348209   -3.126157
H       1.209217    0.386449    0.940233
H       0.650476    1.719425   -0.112897
H      -0.346586    1.205136    1.273182
H       0.572540    0.100717   -2.156448
H       2.373138   -1.611541   -1.613618
H       0.446521   -3.803274    0.974340
H      -0.276260   -2.199468    1.240081
H      -0.538250   -3.961377   -1.209975
H      -1.629404   -2.688728   -0.624210
H      -0.719567   -2.033027   -3.495377
