21

C       0.029287    1.592749   -0.044791
C       0.029261    0.061068    0.019567
C       0.674280   -0.607242   -1.193073
O       2.080251   -0.355746   -1.341357
C       1.665947   -1.594665   -0.743966
C       1.713750   -1.629519    0.775301
C       1.845254   -2.977047    1.443105
C       2.243489   -0.365899    1.412637
C       0.753256   -0.544919    1.233049
H       1.049971    1.974570   -0.132778
H      -0.541097    1.952766   -0.907744
H      -0.419086    2.022292    0.856380
H      -1.012180   -0.288674    0.050124
H       0.123842   -0.682300   -2.129467
H       1.923265   -2.488094   -1.308177
H       2.823124   -3.430461    1.241581
H       1.740891   -2.886228    2.528500
H       1.076426   -3.677539    1.095219
H       2.621574   -0.449105    2.426899
H       2.775049    0.333687    0.780732
H       0.164920   -0.687416    2.134472
