22

C      -0.854120    1.109773    0.012942
C       0.045157   -0.113349   -0.116918
N       0.890178   -0.058059   -1.324590
C       2.053270    0.838552   -1.241363
C       2.207882   -0.614071   -0.970144
C       2.214796   -1.082775    0.473773
C       0.935174   -0.475622    1.124122
C       1.250069    0.673151    2.088854
O       0.185691   -1.465781    1.837173
H      -0.281424    2.033056    0.146075
H      -1.460409    1.219422   -0.890289
H      -1.529702    0.998743    0.866322
H      -0.595510   -0.992188   -0.251598
H       2.370992    1.246019   -2.197125
H       2.136718    1.537221   -0.414572
H       2.680576   -1.248885   -1.714964
H       2.125789   -2.172824    0.509318
H       3.130366   -0.804840    1.006813
H       1.813740    1.483063    1.619274
H       0.331703    1.091035    2.508524
H       1.863501    0.299718    2.919132
H       0.631833   -1.632628    2.674280
