22

C      -0.048164    1.554928   -0.042351
C       0.088659    0.049018    0.057180
C       1.364900   -0.720047   -0.199480
C       2.569401   -0.022388    0.390597
N       3.158794   -0.779465    1.500991
C       1.932104   -0.012493    1.756771
C       1.950048    1.005076    2.861199
C       0.704620   -0.730408    1.199584
C      -0.008652   -1.851256    1.908139
H       0.841076    2.074991    0.319394
H      -0.207726    1.855585   -1.083985
H      -0.906721    1.910598    0.538414
H      -0.780008   -0.473288   -0.346463
H       1.408298   -1.539514   -0.910521
H       3.183471    0.737998   -0.079029
H       2.978115   -1.777576    1.406818
H       2.929898    1.485643    2.919946
H       1.186685    1.774806    2.711546
H       1.756398    0.529034    3.830016
H      -0.620328   -1.473994    2.736671
H      -0.675560   -2.392046    1.228819
H       0.698880   -2.577082    2.326729
