17

C       0.005314    1.524711   -0.022286
C       0.009728    0.017538   -0.016528
C      -0.006665   -0.711967   -1.205685
C      -0.002370   -2.100390   -1.185329
C       0.018799   -2.696818    0.067053
F       0.023775   -4.027261    0.143382
N       0.034743   -2.053162    1.211172
C       0.030509   -0.712460    1.185261
C       0.049288   -0.019866    2.522783
H       0.891518    1.935886    0.475037
H      -0.012236    1.911517   -1.044369
H      -0.866755    1.930851    0.503340
H      -0.022959   -0.187875   -2.156719
H      -0.014667   -2.699781   -2.086615
H       0.928074    0.627754    2.625407
H      -0.830270    0.621698    2.653187
H       0.064397   -0.764037    3.319188
