25

C      -0.132469    1.641174    0.012155
C       0.006923    0.114603    0.002674
C      -1.359250   -0.583038    0.011794
C      -1.354375   -2.141288    0.003360
C      -0.667241   -2.689442   -1.269314
C      -0.643453   -2.703060    1.256895
C      -2.754409   -2.589133    0.014109
C      -3.905093   -2.946260    0.023205
C      -5.295421   -3.381074    0.034644
H       0.846126    2.131369    0.005587
H      -0.688125    1.992806   -0.864197
H      -0.671528    1.983349    0.902506
H       0.580069   -0.186952   -0.881807
H       0.596571   -0.196342    0.872941
H      -1.921709   -0.254800    0.894860
H      -1.938221   -0.245368   -0.856929
H       0.394251   -2.424807   -1.287693
H      -0.744381   -3.779784   -1.304343
H      -1.139522   -2.289253   -2.171443
H      -1.098608   -2.312643    2.172014
H      -0.720057   -3.793722    1.281632
H       0.418232   -2.438559    1.258129
H      -5.372685   -4.474218    0.030298
H      -5.820605   -3.017472    0.925103
H      -5.837657   -3.009249   -0.842085
