19

C      -0.002123    1.424308   -0.130025
C      -0.063712   -0.068711   -0.027447
O       0.244931   -0.789082   -1.246762
C      -0.443475   -1.913212   -0.643971
C      -0.906908   -2.970169   -1.598691
C       0.326905   -2.263663    0.668786
C      -0.661517   -1.539014    1.555102
C       0.618520   -0.847096    1.142316
C      -1.312137   -0.971893    0.259273
H       1.020701    1.750524   -0.348931
H      -0.655894    1.787419   -0.928111
H      -0.311922    1.883241    0.814025
H      -0.049531   -3.449258   -2.084369
H      -1.472362   -3.741437   -1.066488
H      -1.545137   -2.540415   -2.375981
H       0.963205   -3.110968    0.887990
H      -1.053782   -1.784405    2.530764
H       1.484215   -0.580093    1.734039
H      -2.346271   -0.694326    0.065949
