18

C      -0.834814    0.236872    0.654754
C       0.372490    0.406555   -0.236771
O       1.288457    1.153158    0.017901
C       0.448672   -0.424981   -1.521647
C       1.605717   -1.426966   -1.474451
C       1.572226   -2.271838   -2.750523
N       0.236900   -2.770644   -3.073000
C      -0.757065   -2.192170   -2.554431
O      -0.797494   -1.100287   -1.741042
H      -1.745276    0.503819    0.108664
H      -0.950965   -0.812922    0.943631
H      -0.722759    0.864825    1.538820
H       0.609226    0.277697   -2.350488
H       2.544929   -0.881114   -1.359565
H       1.484260   -2.073647   -0.597193
H       1.942732   -1.693119   -3.607068
H       2.239356   -3.135008   -2.654827
H      -1.769906   -2.550012   -2.729291
