15

N      -0.196410    1.215521   -0.506250
C      -0.069713    0.005729   -0.134359
N      -1.105339   -0.684079    0.470376
C      -2.534224   -0.319055    0.289629
C      -2.859400   -0.821233   -1.108754
C      -2.176913   -1.979979   -1.199869
C      -1.487875   -2.090125    0.150876
C      -2.771594   -1.715356    1.027742
O      -3.507730   -2.215198    1.801708
H       0.694587    1.580498   -0.838839
H       0.851014   -0.589613   -0.180562
H      -2.876510    0.647424    0.643028
H      -3.569963   -0.382556   -1.793226
H      -2.186832   -2.728934   -1.978031
H      -0.793166   -2.893571    0.381369
