18

C      -0.106801    1.417228   -0.687612
C      -0.098527    0.075155    0.048456
C      -1.473599   -0.598918    0.068744
O      -1.981152   -0.840439   -1.236770
C      -1.459908   -1.901272    0.907219
C      -2.819684   -2.563232    0.869518
O      -3.704460   -2.350901    1.658612
C      -3.027149   -3.515648   -0.244221
N      -3.156628   -4.286003   -1.096974
H       0.898093    1.846438   -0.730725
H      -0.475362    1.296767   -1.709442
H      -0.758411    2.137747   -0.182133
H       0.619186   -0.611363   -0.424318
H       0.244271    0.210757    1.081574
H      -2.204709    0.080862    0.522659
H      -1.349752   -1.388904   -1.717510
H      -0.696886   -2.584275    0.515435
H      -1.229900   -1.667969    1.950441
