14

C      -0.197062    1.258926   -0.310657
C       1.221198    1.040348    0.099449
N       0.258256   -0.050623    0.143596
C      -0.169629   -0.530218    1.374187
N       0.666062   -0.802080    2.369750
N      -0.180347   -1.320819    3.301529
C      -1.442021   -1.325126    2.837561
N      -1.481404   -0.830631    1.616146
H      -0.835486    1.827483    0.360112
H      -0.464821    1.315456   -1.361113
H       1.999785    0.940976   -0.650575
H       1.543520    1.456452    1.049797
H       0.181712   -1.633795    4.186449
H      -2.283145   -1.688795    3.408914
