16

O      -0.027985    1.450737   -0.044917
C       0.034012    0.042903    0.022202
C       0.637560   -0.533197    1.333166
C      -0.315176   -1.667037    1.676278
C      -1.763407   -1.390073    1.962463
N      -1.281811   -1.935825    0.603483
C      -1.387619   -0.522333    0.035073
C      -2.193578   -0.128081    1.288450
O      -3.028313    0.695848    1.526713
H       0.863997    1.790951   -0.163312
H       0.569745   -0.369912   -0.845644
H       1.653794   -0.910353    1.189681
H       0.665336    0.241931    2.104235
H       0.072503   -2.561834    2.155012
H      -2.336928   -1.983425    2.666739
H      -1.924996   -0.462771   -0.910257
