16

C      -0.087144    1.434487    0.003991
N      -0.000974   -0.016675    0.006091
C       0.001474   -0.795852   -1.117569
N      -0.092571   -0.234839   -2.392475
C       0.013717   -2.108993   -0.669412
N       0.026323   -2.147520    0.683513
C       0.030691   -0.886435    1.091289
C       0.099441   -0.427523    2.473650
O       0.099344   -1.146196    3.447588
H       0.896214    1.899985    0.129194
H      -0.512830    1.748700   -0.951268
H      -0.742429    1.774878    0.806554
H       0.707330    0.333200   -2.651314
H      -0.230347   -0.946644   -3.098082
H       0.015252   -3.005865   -1.271910
H       0.160094    0.679191    2.584003
