18

C      -0.164332    1.519691    0.034070
C      -0.014785    0.005221   -0.004819
O      -1.239275   -0.640274   -0.277060
C       1.229581   -0.505121   -0.785381
O       1.908946   -0.827908    0.450034
C       0.710255   -0.608103    1.194108
C       0.711019   -0.250656    2.639897
C       0.176461   -1.599417    2.170840
H       0.783705    1.997747    0.294764
H      -0.476616    1.904415   -0.945324
H      -0.915315    1.812356    0.774629
H      -1.724704   -0.112754   -0.919633
H       1.013273   -1.398599   -1.382910
H       1.790140    0.224461   -1.380152
H       1.673279   -0.240824    3.140839
H       0.006876    0.495290    2.995098
H      -0.894698   -1.767930    2.181974
H       0.787155   -2.473747    2.368218
