18

C      -0.085749    1.500699   -0.173016
C       0.003283    0.016220    0.198037
C      -1.337949   -0.681440    0.093683
O      -1.910924   -0.657966   -1.259566
C      -2.151811   -2.061513   -1.198333
C      -0.860181   -2.825329   -1.105390
C      -1.442736   -2.208080    0.141932
C      -3.390043   -2.583114   -1.681181
N      -4.387702   -3.020182   -2.071582
H       0.893523    1.981669   -0.099564
H      -0.449612    1.619041   -1.197317
H      -0.773035    2.035121    0.491606
H       0.730829   -0.489113   -0.446205
H       0.359700   -0.098312    1.230117
H      -2.064501   -0.223031    0.776672
H      -0.950597   -3.905251   -1.155051
H       0.011958   -2.406029   -1.596604
H      -1.734340   -2.794887    1.001622
