19

C       0.034394    1.504490   -0.031433
C       1.539295    1.933311    0.021093
C       2.138990    0.844912    0.874252
C       3.335400   -0.066180    1.091480
C       2.576030    0.525141    2.292361
C       1.615806   -0.710374    2.294914
C       2.374058   -1.303349    1.094142
C       1.195261   -0.369613    0.876715
C      -0.009202   -0.059573    0.025085
H      -0.478877    1.905078    0.849784
H      -0.477971    1.900839   -0.912679
H       1.971912    1.918541   -0.986758
H       1.659954    2.947216    0.412743
H       4.379913    0.056522    0.832378
H       2.960989    1.166728    3.075715
H       1.090666   -1.239771    3.080685
H       2.512654   -2.346496    0.837559
H      -0.961098   -0.425981    0.419532
H       0.110013   -0.477688   -0.981946
