18

O       0.105548    1.360071    0.133427
C       0.020561   -0.049921   -0.026312
C      -1.431536   -0.547027   -0.059818
C      -1.554582   -2.074678   -0.158417
N      -0.907741   -2.821217    0.939924
C      -2.364409   -2.582052    0.983405
C      -2.768255   -1.387147    1.825707
O      -1.682983   -0.675758    2.423625
C      -2.226412   -0.171739    1.195199
H      -0.028299    1.551804    1.066602
H       0.511306   -0.280622   -0.978076
H       0.555211   -0.583386    0.767221
H      -1.939453   -0.096062   -0.921368
H      -1.597221   -2.534092   -1.141297
H      -0.741531   -3.778026    0.635425
H      -3.050031   -3.417035    0.890669
H      -3.691135   -1.411055    2.398689
H      -2.701239    0.804214    1.266385
