23

C      -0.008573    1.508854    0.043296
C      -0.003131    0.009226   -0.017692
C      -0.006409   -0.699822   -1.150006
C      -0.000040   -2.218693   -1.092935
C      -0.004761   -2.879379   -2.458959
C      -1.060391   -2.645092   -0.024680
C       0.011648   -2.274331    1.038942
C       1.075108   -2.636571   -0.036165
C       0.006947   -0.758397    1.291705
H       0.872250    1.889619    0.577204
H      -0.016988    1.952548   -0.956252
H      -0.885046    1.882789    0.589032
H      -0.013618   -0.213649   -2.123149
H       0.875249   -2.585840   -3.043679
H       0.000143   -3.970639   -2.369550
H      -0.893407   -2.593004   -3.034093
H      -2.013365   -2.108727   -0.014712
H      -1.242263   -3.724306   -0.047175
H       0.018929   -2.834633    1.977058
H       1.265330   -3.714301   -0.060661
H       2.023826   -2.092623   -0.036422
H       0.885265   -0.468384    1.887506
H      -0.867260   -0.475382    1.896843
