12

F       0.001794    0.019703    0.003670
C      -0.016368    1.357596    0.010832
C      -1.237784    2.017240    0.030061
C      -1.256682    3.409279    0.037518
C      -0.053625    4.102003    0.025534
F      -0.071788    5.439897    0.032706
C       1.167790    3.442361    0.006308
C       1.186688    2.050320   -0.001149
H      -2.155878    1.442179    0.038965
H      -2.190047    3.959078    0.052448
H       2.085886    4.017420   -0.002596
H       2.120054    1.500523   -0.016079
