20

C      -0.181085    1.511835   -0.039292
N       0.081096    0.078939    0.024334
C       1.078064   -0.488519   -0.872079
C       2.485130   -0.312916   -0.312032
O       2.700853    0.705748    0.643021
C       1.851175    0.415493    1.758776
C       0.786654   -0.538920    1.206224
C      -0.128411   -1.187732    2.220937
C       1.613907   -1.404464    0.213144
H       0.715154    2.145371    0.025550
H      -0.680568    1.725992   -0.990695
H      -0.875162    1.792137    0.760334
H       0.860049   -0.685711   -1.917966
H       3.347768   -0.512435   -0.937302
H       2.425451   -0.056660    2.571400
H       1.434017    1.357544    2.130085
H      -0.722854   -0.433482    2.748293
H      -0.819517   -1.872901    1.724397
H       0.446353   -1.746226    2.967823
H       1.796172   -2.469449    0.246953
