19

O      -0.074895    1.396694   -0.340165
C      -0.018201   -0.020037   -0.459873
C      -1.333136   -0.576892    0.084748
C      -2.536811   -0.078114   -0.760802
C      -2.830683   -1.236954   -1.680440
C      -2.221492   -2.353596   -1.294103
C      -1.413807   -2.141634   -0.019346
C      -0.141382   -2.857703    0.007987
C       0.890458   -3.475301    0.029148
H       0.735383    1.758580   -0.709547
H       0.108787   -0.328120   -1.509639
H       0.823971   -0.433145    0.110412
H      -1.417304   -0.256438    1.126627
H      -3.407956    0.145196   -0.129628
H      -2.290801    0.850359   -1.284552
H      -3.494213   -1.155386   -2.534462
H      -2.291094   -3.326163   -1.765832
H      -2.006865   -2.512434    0.831275
H       1.803349   -4.017222    0.048381
