15

C       0.006532    1.446780    0.055592
N      -0.008727   -0.001722   -0.020495
C       0.534135   -0.687604    0.881672
O       1.170085    0.019485    1.990428
C       1.742404   -0.700325    2.941434
N       1.807263   -1.977265    3.007815
C       1.187598   -2.617734    1.928573
N       1.252784   -3.960922    1.993500
N       0.587516   -2.045828    0.925416
H       1.026969    1.853278    0.063243
H      -0.513252    1.850504   -0.816561
H      -0.496533    1.822394    0.956940
H       2.185678   -0.080463    3.719027
H       1.715970   -4.395465    2.770617
H       0.834988   -4.511064    1.263849
