18

C      -0.451406    1.376339   -0.067966
C      -0.025624   -0.076926    0.012316
O       1.144845   -0.373642   -0.806988
C       1.989420   -0.603268    0.337936
C       2.762741   -1.909148    0.251072
C       2.886603    0.544894    0.567404
N       3.534130    1.475266    0.797753
C       0.738718   -0.530464    1.287839
O       0.766726    0.263178    2.427622
H       0.367422    2.056445    0.184805
H      -0.778571    1.611766   -1.084565
H      -1.285308    1.563028    0.616049
H      -0.853873   -0.735006   -0.273373
H       3.453109   -1.889729   -0.596476
H       3.337962   -2.075657    1.166610
H       2.060637   -2.734825    0.111483
H       0.447959   -1.530988    1.615148
H       1.173164    1.113458    2.218830
