17

N      -0.633642    1.239754   -0.347168
C      -0.326909    0.018668   -0.272021
O      -1.256426   -0.867499    0.165291
C      -0.859677   -2.242427    0.200585
C      -1.994185   -3.056162    0.817202
C      -2.858254   -3.486909   -0.389697
N      -1.888714   -3.500156   -1.475205
C      -0.758052   -2.774623   -1.248082
O       0.137028   -2.544161   -2.033108
H       0.167734    1.774629   -0.676126
H       0.631940   -0.441769   -0.530260
H       0.096357   -2.346918    0.722349
H      -1.578335   -3.940515    1.307397
H      -2.551409   -2.477370    1.554563
H      -3.305453   -4.474735   -0.246218
H      -3.666458   -2.770364   -0.582227
H      -2.109544   -3.810470   -2.408833
