17

N       0.073313   -1.137537    0.089331
C      -0.014596    0.017283    0.032239
C      -0.063302    1.427021   -0.053810
C      -1.136267    2.234886   -0.024964
C      -0.588808    3.658066    0.017533
C      -0.012905    3.853236    1.459370
C       1.239835    2.928114    1.422892
C       1.167069    2.362573   -0.028317
N       0.681967    3.561616   -0.735816
H      -2.172559    1.942202    0.081194
H      -1.253989    4.448495   -0.327595
H       0.268845    4.898221    1.602592
H      -0.733283    3.579131    2.232183
H       2.159236    3.502908    1.548268
H       1.220657    2.137247    2.174670
H       2.093091    1.947314   -0.422179
H       0.484314    3.328314   -1.707882
