16

N       0.122175    1.241913    0.385869
C       0.105195    0.040105   -0.010661
O       1.241267   -0.649453   -0.301980
C       1.126102   -1.844471   -1.090334
O       0.080717   -2.655121   -0.694885
C      -1.164645   -1.992940   -0.887307
C      -1.207718   -0.723943   -0.036867
C      -1.634565   -1.019297    1.413207
O      -2.138971   -2.051075    1.762330
H       1.080166    1.597207    0.408893
H       1.022232   -1.543992   -2.146293
H       2.059002   -2.387795   -0.936402
H      -1.300907   -1.755442   -1.952612
H      -1.942780   -2.685723   -0.565004
H      -1.963663   -0.023180   -0.412131
H      -1.461096   -0.172528    2.107328
