19

C       0.014970    1.387802   -0.145317
C       0.218700   -0.102936    0.002289
C       1.574819   -0.719254    0.061286
C       0.701033   -0.747970    1.310474
C       1.074928    0.094184    2.527388
C       2.114114   -0.527886    3.344574
C       2.965861   -1.061374    4.003651
C       0.072823   -2.063106    1.620188
O      -0.257698   -2.875064    0.787992
H       0.829701    1.967009    0.298508
H      -0.025967    1.652364   -1.207430
H      -0.924111    1.715829    0.313084
H      -0.531538   -0.714523   -0.491971
H       1.732526   -1.671439   -0.432406
H       2.437539   -0.061378    0.098100
H       1.412493    1.085125    2.208795
H       0.182956    0.266951    3.145226
H       3.720016   -1.525748    4.589457
H      -0.087712   -2.259108    2.703331
