22

C       0.154255    1.234685   -0.259070
O      -0.082127    0.011841    0.425402
C      -1.202335   -0.651213    0.059317
N      -1.484365   -1.748379    0.601422
C      -2.695584   -2.490880    0.245118
C      -3.599149   -2.513565    1.491933
C      -3.483090   -1.964813   -0.966440
C      -2.192535   -3.919129   -0.049537
O      -3.306695   -4.756543   -0.325402
H       1.073940    1.647761    0.157157
H       0.289668    1.075582   -1.336222
H      -0.661991    1.950790   -0.101538
H      -1.787562   -0.137541   -0.713930
H      -3.994034   -1.513428    1.695811
H      -4.433946   -3.202042    1.342437
H      -3.025732   -2.835477    2.365502
H      -2.848958   -1.895707   -1.857511
H      -4.298662   -2.654582   -1.192037
H      -3.916396   -0.978147   -0.772443
H      -1.500860   -3.879987   -0.905689
H      -1.625022   -4.270412    0.823025
H      -2.984966   -5.654421   -0.441405
