19

C       0.012684    1.519243   -0.014568
C       1.316897    0.765536   -0.039491
C       0.000321    0.011770   -0.000122
C      -0.450381   -0.787973    1.253140
C      -0.526612   -2.221190    0.704812
O      -1.770526   -3.008340    0.737275
C      -1.746962   -3.149496   -0.718194
C      -0.735546   -2.032745   -0.763395
C      -0.515430   -0.786071   -1.168722
H      -0.265656    2.030485    0.901648
H      -0.307528    2.026254   -0.919368
H       1.884195    0.750344   -0.963895
H       1.927108    0.767732    0.857881
H       0.220368   -0.667319    2.108432
H      -1.455141   -0.468309    1.551412
H       0.308759   -2.857443    1.026060
H      -1.386304   -4.145005   -1.009787
H      -2.722915   -2.962847   -1.178425
H      -0.768414   -0.338105   -2.122992
