11

C       0.175946   -1.192168   -0.006088
C       0.074286    0.007036    0.001814
C      -0.068583    1.398820    0.011402
C      -1.154185    2.241682    0.031550
N      -0.716590    3.559357    0.032401
C       0.569967    3.459518    0.013404
O       1.045830    2.193394   -0.000258
C      -2.524414    1.879767    0.049248
N      -3.638366    1.567250    0.063534
H       0.260021   -2.251686   -0.012943
H       1.301752    4.251899    0.007200
