17

O       0.086186    1.405315   -0.101301
C       0.044922    0.008732   -0.096231
C       0.487087   -0.757651    1.213954
C      -0.935828   -1.325969    1.295231
C      -1.416533   -2.596371    1.930651
C      -1.401804   -2.516455    3.450020
O      -0.916837   -3.350618    4.167757
O      -1.817570   -0.181175    1.344480
C      -1.346276   -0.632086    0.060761
H      -0.507686    1.693422    0.604095
H       0.586156   -0.338093   -0.979305
H       1.252292   -1.513401    1.020633
H       0.792547   -0.128339    2.053290
H      -2.456050   -2.769198    1.621354
H      -0.809957   -3.451623    1.619490
H      -1.895540   -1.609128    3.862845
H      -2.098818   -0.873051   -0.682308
