19

C      -0.018824    1.519885   -0.046021
C       1.407576    2.095047    0.031813
C       2.105925    1.748407    1.362989
C       1.878683    0.304373    1.685380
C       0.923487   -0.461391    1.069682
C      -0.028547   -0.023871    0.006617
N       1.043168   -1.712736    1.639675
C       2.049565   -1.637502    2.562363
N       2.575900   -0.436305    2.617121
H      -0.607797    1.907479    0.794790
H      -0.514216    1.858484   -0.961994
H       1.999813    1.692852   -0.800657
H       1.376504    3.181538   -0.102331
H       3.178583    1.963037    1.302103
H       1.714826    2.385480    2.168937
H      -1.046635   -0.387038    0.198784
H       0.261892   -0.432331   -0.972762
H       0.492536   -2.526110    1.421536
H       2.347310   -2.489078    3.156217
