21

C      -0.167144    1.641752   -0.112342
C      -0.124309    0.120457   -0.279094
C      -1.329953   -0.575766    0.369066
C      -1.376829   -2.075361    0.133051
C      -0.269013   -2.893925    0.786765
C      -0.300998   -4.374402    0.464262
O      -0.158826   -5.246145    1.283797
C      -2.661787   -2.714194   -0.191506
O      -1.695072   -2.455157   -1.216420
H       0.697369    2.116760   -0.585770
H      -1.070087    2.064121   -0.566781
H      -0.165678    1.926303    0.945843
H      -0.103690   -0.137745   -1.344340
H       0.808812   -0.261906    0.152576
H      -1.337111   -0.384220    1.450587
H      -2.251021   -0.139074   -0.034010
H       0.700436   -2.518726    0.427657
H      -0.284832   -2.770318    1.874018
H      -0.444720   -4.606916   -0.611864
H      -2.825435   -3.766425    0.041401
H      -3.566777   -2.110789   -0.241778
