16

C      -0.181649    1.493380    0.038363
C       0.140115    0.023068   -0.023314
O       1.251121   -0.451658   -0.018929
O      -1.004000   -0.698204   -0.085056
C      -1.020869   -2.070889   -0.149887
C      -2.144574   -2.856773   -0.212520
C      -1.681128   -4.202571   -0.265298
C      -0.307211   -4.177011   -0.232913
N       0.092560   -2.863200   -0.162150
H       0.745454    2.062623    0.087417
H      -0.756753    1.789171   -0.843573
H      -0.798783    1.706170    0.915819
H      -3.162526   -2.502930   -0.219189
H      -2.295922   -5.087266   -0.321005
H       0.420882   -4.970998   -0.253716
H       1.025068   -2.486672   -0.122068
