18

C       0.128818    1.452962    0.284939
O       0.985909    2.259458   -0.510776
C       2.170240    1.631196   -1.013044
C       1.700528    0.522002   -1.942640
C       2.472483   -0.746332   -2.375445
N       2.834413   -1.515044   -1.166418
C       1.439348   -1.615263   -1.720486
C       0.766171   -0.390321   -1.165837
C       0.037000    0.003164   -0.134747
H       0.457390    1.471355    1.340460
H      -0.848363    1.951404    0.253266
H       2.729848    2.428446   -1.510175
H       2.784090    1.213157   -0.203425
H       1.200156    0.950797   -2.818638
H       3.005699   -0.891446   -3.306816
H       3.331682   -2.347043   -1.488488
H       1.034565   -2.575501   -2.013232
H      -0.531527   -0.670145    0.500886
