16

C       0.054419    1.509575    0.117861
C       1.352126    0.748343    0.033838
N       1.982759    0.533784    1.337450
C       1.218920   -0.288277    1.932836
N       1.016319   -0.589936    3.274964
C      -0.372877   -0.844209    3.348114
N      -1.009769   -0.974575    2.246254
C       0.031802   -0.877968    1.198388
C       0.005152    0.006042   -0.030443
H      -0.200250    1.961200    1.071404
H      -0.254528    2.080951   -0.750952
H       2.009508    0.865721   -0.818672
H       1.485451   -0.069437    4.002119
H      -0.831046   -0.929965    4.328736
H       0.246777   -1.909183    0.879089
H      -0.359510   -0.407338   -0.961406
