25

C      -0.150666    1.766100    0.213783
C      -0.026049    0.250333   -0.030756
C      -1.349436   -0.463219   -0.021230
C      -2.005454   -0.988567   -1.066469
C      -1.587599   -1.036943   -2.503946
C      -3.311959   -1.627969   -0.641255
C      -3.511081   -1.118212    0.803036
C      -2.098424   -0.699405    1.285831
C      -1.420376   -1.774654    2.155889
H       0.834664    2.243155    0.217505
H      -0.754474    2.237997   -0.567704
H      -0.627123    1.979897    1.175708
H       0.489295    0.084868   -0.982504
H       0.625596   -0.176919    0.743366
H      -1.535240   -2.074054   -2.861463
H      -2.321251   -0.528998   -3.143686
H      -0.614060   -0.573167   -2.679572
H      -4.144966   -1.353940   -1.300809
H      -3.239374   -2.724802   -0.691300
H      -4.167912   -0.242569    0.791274
H      -3.974941   -1.860385    1.459678
H      -2.154737    0.220648    1.882154
H      -1.374838   -2.733105    1.626938
H      -0.396164   -1.494273    2.423335
H      -1.974796   -1.927674    3.088090
