23

C       0.107620    1.555587   -0.143793
C       0.016965    0.038902    0.045553
C      -1.425099   -0.481231   -0.014586
C      -1.534648   -2.001548    0.110194
C      -1.074409   -2.602443    1.447111
O      -1.672468   -3.895658    1.525940
C      -2.772251   -3.968407    0.624855
C      -2.961494   -2.569350    0.023983
O      -3.804078   -1.747192    0.823510
H       1.143976    1.904105   -0.094415
H      -0.300107    1.857492   -1.115047
H      -0.459604    2.084832    0.629850
H       0.618844   -0.463080   -0.724218
H       0.468887   -0.233382    1.008002
H      -2.023780   -0.014125    0.774438
H      -1.878778   -0.169287   -0.964981
H      -0.954146   -2.474430   -0.693682
H       0.010525   -2.724888    1.518777
H      -1.410889   -1.974244    2.285485
H      -2.559197   -4.709050   -0.160403
H      -3.671829   -4.297720    1.163420
H      -3.331710   -2.615258   -1.010220
H      -4.661187   -2.177342    0.897953
