19

C      -1.014978    1.423571   -0.866906
C      -0.773292   -0.000121   -0.685093
C      -0.584388   -1.178274   -0.521774
C      -0.324247   -2.591927   -0.366399
C      -0.173484   -3.178158    1.075054
O      -1.614029   -2.937082    1.297548
C      -1.518221   -3.548369   -0.044070
C      -0.539272   -4.599024    0.555856
C       0.388843   -5.474269   -0.270055
H      -0.080399    1.968830   -1.040227
H      -1.669427    1.609659   -1.725951
H      -1.495513    1.860233    0.015573
H       0.392221   -2.955263   -1.107017
H       0.516742   -2.871959    1.861991
H      -2.444645   -3.687224   -0.602546
H      -1.037619   -5.169740    1.343457
H       0.905562   -4.934641   -1.067533
H       1.151701   -5.927769    0.371726
H      -0.174524   -6.291190   -0.733490
