19

C       0.434871    0.808457    0.675540
C      -0.204467    0.212623   -0.585889
N       0.606719   -0.588113   -1.490223
C       1.694807   -1.144269   -1.199898
N       2.612175   -1.200541   -0.082964
C       3.682124   -1.686958   -1.008558
C       3.275778   -3.059199   -1.456967
C       2.631512   -1.869496   -2.121691
O       2.610827   -1.735385   -3.485760
H       0.788563    0.032830    1.360055
H       1.272300    1.469083    0.424103
H      -0.305698    1.412791    1.209590
H      -1.062561   -0.409621   -0.295773
H      -0.630598    1.027145   -1.184751
H       2.794269   -0.309057    0.361346
H       4.683215   -1.279254   -0.997242
H       3.984965   -3.552940   -2.115867
H       2.725502   -3.712446   -0.784406
H       2.101681   -0.935972   -3.673324
