23

C      -0.046064    1.502124   -0.007042
C      -0.014342   -0.016751    0.010226
O      -1.343287   -0.495778    0.009225
C      -1.434452   -1.901854    0.026520
C      -2.908729   -2.304823   -0.022369
C      -3.585474   -1.802102   -1.300982
C      -3.024489   -3.840315    0.131247
C      -4.398654   -4.311888    0.250310
C      -5.536922   -4.683925    0.356088
H       0.971099    1.905107   -0.005271
H      -0.562188    1.864969   -0.900447
H      -0.573156    1.884486    0.871653
H       0.529510   -0.403221   -0.868734
H       0.520872   -0.382399    0.903387
H      -0.894976   -2.333570   -0.836733
H      -0.957587   -2.304268    0.937772
H      -3.400671   -1.842325    0.842014
H      -4.648503   -2.056507   -1.306083
H      -3.479693   -0.718637   -1.384620
H      -3.125355   -2.256615   -2.187406
H      -2.547438   -4.326701   -0.731170
H      -2.458527   -4.163232    1.015088
H      -6.538833   -5.022562    0.448680
