22

C       0.049807    1.614052    0.109421
N       0.159009    0.161302    0.119479
C       1.368098   -0.540272   -0.293474
C       2.695626    0.200169   -0.373065
C       3.043631    0.679104    1.068472
O       3.117969    2.097412    1.202715
C       1.918656    0.158529    1.996377
C       0.898283   -0.585729    1.133249
C       0.169979   -1.756088    1.752420
H       0.950963    2.164626    0.405286
H      -0.232887    1.929942   -0.900829
H      -0.765035    1.903596    0.781590
H       1.206039   -1.363649   -0.987276
H       3.465084   -0.478470   -0.756666
H       2.659088    1.058092   -1.055524
H       4.007278    0.248209    1.373882
H       3.811462    2.415357    0.615802
H       2.321844   -0.525140    2.749775
H       1.478081    1.001905    2.538495
H      -0.440088   -1.433307    2.604657
H      -0.497345   -2.217301    1.020557
H       0.873723   -2.513670    2.116292
