17

C       0.062900    1.448478    0.023449
O      -0.147884    0.047619    0.108794
C       0.625126   -0.600456    1.082194
C       0.111532   -2.022315    1.360328
N       1.274161   -2.803061    1.819415
C       2.419926   -2.305544    1.046931
C       2.088973   -0.861272    0.651565
O       2.811388   -0.085107    0.080927
H       1.088654    1.686785   -0.273420
H      -0.633960    1.823829   -0.729478
H      -0.155144    1.938715    0.985461
H       0.650549   -0.018315    2.022388
H      -0.692717   -2.058563    2.096654
H      -0.270179   -2.442358    0.421616
H       1.429855   -2.613319    2.803958
H       3.360375   -2.369924    1.599844
H       2.547736   -2.891273    0.125114
