19

C      -0.687357    1.128101   -0.063963
C       0.084713   -0.165895   -0.243158
C       1.416014   -0.191430   -1.064809
O       2.147676    1.011973   -1.042520
C       1.937966   -1.274725   -0.076941
C       0.888234   -0.763707    0.960190
O       1.416410    0.343394    1.704365
C       0.243557   -1.727970    1.836342
C      -0.270123   -2.535321    2.565267
H      -0.041162    1.935259    0.284676
H      -1.130436    1.438019   -1.015901
H      -1.496704    1.001992    0.662146
H      -0.569652   -0.957410   -0.621804
H       1.332452   -0.479520   -2.114801
H       2.246090    1.259064   -0.113474
H       1.718889   -2.291650   -0.410503
H       2.985306   -1.200184    0.226556
H       1.982268   -0.014998    2.397710
H      -0.732710   -3.244583    3.206537
