15

C       0.033869    1.506018   -0.066347
C      -0.032317   -0.023744    0.023059
O       0.641975   -0.591708   -1.100009
C       1.551691   -1.608787   -0.673469
C       1.575749   -1.501679    0.823763
C       0.678925   -0.612921    1.228221
C      -1.455809   -0.460457    0.013437
N      -2.561426   -0.796884    0.020521
H       1.080231    1.817992   -0.031797
H      -0.410128    1.843981   -1.005515
H      -0.508829    1.966443    0.763857
H       1.208059   -2.598758   -1.010734
H       2.529867   -1.422383   -1.136386
H       2.232193   -2.091230    1.450656
H       0.432482   -0.325144    2.241016
