19

C       0.037810    1.485436   -0.269592
C      -0.209090   -0.015411   -0.395405
C      -1.451942   -0.484022    0.345185
O      -2.169918    0.264282    0.974591
C      -1.730477   -1.906075    0.252745
C      -1.952825   -3.091811    0.187653
C      -2.238176   -4.525957    0.077797
C      -3.607739   -4.770295   -0.574309
O      -1.196407   -5.229691   -0.588604
H       0.939671    1.772242   -0.817265
H      -0.805851    2.055152   -0.667172
H       0.160570    1.774639    0.777093
H      -0.314828   -0.321240   -1.445279
H       0.640390   -0.598937   -0.015234
H      -2.250551   -4.948880    1.089830
H      -3.632546   -4.349621   -1.584778
H      -3.787759   -5.846357   -0.635716
H      -4.406352   -4.303082    0.008221
H      -1.098084   -4.844198   -1.466584
