23

C      -0.025201    1.501404   -0.339820
C      -0.048665    0.025938    0.078592
C      -1.437387   -0.558262    0.153720
C      -1.717328   -2.078297    0.228165
C      -2.995656   -1.584275   -0.490096
C      -3.799083   -2.415343   -1.449972
C      -3.721219   -0.779437    0.615508
C      -2.491827    0.030781    1.126422
O      -2.178989   -0.536857   -1.116732
H       1.003493    1.853905   -0.459067
H      -0.545763    1.637048   -1.291983
H      -0.510939    2.141290    0.403343
H       0.534235   -0.566392   -0.636177
H       0.432628   -0.100212    1.057277
H      -1.066330   -2.643499   -0.441458
H      -1.804134   -2.561327    1.205770
H      -4.341306   -3.200632   -0.912765
H      -4.532893   -1.794216   -1.974550
H      -3.152791   -2.887303   -2.195184
H      -4.500647   -0.142714    0.189808
H      -4.173443   -1.419630    1.378621
H      -2.248081   -0.157497    2.176134
H      -2.611620    1.106525    0.985606
