22

C      -0.067664    1.613141   -0.093362
C      -0.054309    0.081735   -0.137501
C      -1.408335   -0.564113    0.162491
C      -1.413484   -2.104666    0.045756
C      -2.691961   -2.553997    0.779917
C      -2.952079   -1.444099    1.777740
C      -1.948651   -0.328378    1.591258
N      -3.881779   -1.371230    2.642595
O      -4.688893   -2.528076    2.613758
H       0.915658    2.023672   -0.342781
H      -0.789750    2.023128   -0.808419
H      -0.338559    1.984998    0.900105
H       0.282175   -0.248683   -1.128852
H       0.687161   -0.301062    0.577688
H      -2.149782   -0.167757   -0.547256
H      -1.371693   -2.448655   -0.991448
H      -0.527957   -2.506635    0.554714
H      -3.550722   -2.630486    0.101397
H      -2.607883   -3.527284    1.271793
H      -1.127139   -0.444364    2.314129
H      -2.389003    0.656610    1.757310
H      -5.340147   -2.334565    3.295953
