19

C      -0.310999    2.039694    0.000117
C      -0.169021    0.535299   -0.066010
C      -1.337131   -0.156606   -0.753378
O      -1.065572   -1.546222   -0.867246
N       1.172391    0.019857   -0.318764
C       0.550330   -0.245488    0.996809
C       1.183477    0.401152    2.199993
N       0.974823   -0.293868    3.363826
O       1.788482    1.455243    2.178873
H       0.544882    2.473242    0.515774
H      -0.365501    2.455625   -1.012472
H      -1.226283    2.323210    0.532439
H      -2.258233    0.025427   -0.178113
H      -1.472854    0.298651   -1.747327
H      -1.749668   -1.948636   -1.408509
H       1.097818   -0.834659   -0.868730
H       0.171249   -1.252114    1.154209
H       0.642777   -1.242538    3.360208
H       1.447637    0.038885    4.188656
