22

C       0.071860    1.426729   -0.293139
C      -0.031269   -0.060947    0.082035
C       0.654507   -0.341688    1.428935
C      -1.468094   -0.520047    0.079937
C      -2.595886   -0.214249    1.059122
N      -3.380031   -1.381725    0.490246
C      -3.680604   -0.878561   -0.909589
C      -2.196554   -0.946093   -1.219134
C      -2.035744   -1.903019   -0.071358
H       1.116667    1.752013   -0.326163
H      -0.377281    1.621357   -1.271807
H      -0.446851    2.051885    0.442789
H       0.497709   -0.640419   -0.688323
H       0.594212   -1.402105    1.692721
H       1.711703   -0.059529    1.393550
H       0.187141    0.231772    2.237272
H      -2.326522   -0.435965    2.095248
H      -3.118077    0.749165    1.013870
H      -4.260045   -1.633809   -1.447679
H      -4.206766    0.082801   -0.944878
H      -1.679338   -0.949207   -2.171359
H      -1.650912   -2.907746    0.035024
