18

C       0.031076    1.592160    0.081108
C       0.002124    0.055375   -0.026590
C       0.721057   -0.479255   -1.242962
C       0.021194   -0.908365   -2.371446
N       0.569361   -1.369469   -3.496588
C       1.904899   -1.421926   -3.526909
C       2.720694   -1.035048   -2.473272
C       2.120813   -0.554332   -1.311252
O       2.934277   -0.181298   -0.290263
H       1.055653    1.977464    0.119243
H      -0.452776    2.045985   -0.788480
H      -0.491272    1.931588    0.980766
H       0.419371   -0.386980    0.890772
H      -1.038566   -0.283440   -0.058833
H      -1.067702   -0.873931   -2.351280
H       2.350852   -1.797265   -4.444970
H       3.800505   -1.099546   -2.535482
H       2.401530    0.090225    0.464252
