19

O      -0.097230    1.439967    0.022393
C      -0.011395    0.022262   -0.006382
C       0.698146   -0.588162    1.228486
C       0.037105   -1.966665    1.435397
O      -0.015192   -2.412677    2.786025
C      -1.372049   -1.799333    0.901140
O      -2.056576   -2.957529    0.538923
C      -2.137159   -0.576793    1.336741
C      -1.399784   -0.589701    0.010620
H       0.794104    1.793856   -0.060128
H       0.500179   -0.302401   -0.926313
H       1.783824   -0.650807    1.104251
H       0.497744    0.039824    2.101879
H       0.529291   -2.726239    0.808774
H       0.870725   -2.678045    3.051081
H      -2.260516   -3.428473    1.355158
H      -3.215390   -0.664527    1.267933
H      -1.780573    0.042010    2.151803
H      -1.985955   -0.587650   -0.900394
