16

C       0.201172    1.533665    0.312809
C       0.004523    0.102703   -0.033400
C      -1.093496   -0.673558   -0.269006
N      -0.621267   -1.941946   -0.536981
N       0.634819   -1.977997   -0.484993
O       1.090792   -0.670093   -0.163556
C      -2.532650   -0.365713   -0.251241
C      -3.460772   -1.087387   -1.166354
N      -3.486910   -1.361680    0.275202
H       0.781086    1.633011    1.235657
H       0.747087    2.056445   -0.479369
H      -0.762105    2.027772    0.452247
H      -2.770102    0.657642    0.026803
H      -4.336185   -0.574357   -1.554491
H      -3.022260   -1.828465   -1.828328
H      -2.982968   -2.227555    0.459654
