24

C      -0.261494    1.551547   -0.104723
C      -0.007866    0.039382   -0.028522
C       0.855654   -0.421816   -1.204633
O       0.168180   -0.131303   -2.413888
C       0.641387   -0.398926    1.294988
C      -0.242074   -0.200539    2.528003
N       0.408969   -0.742704    3.718038
C       1.270970    0.179466    4.451850
C      -0.053621   -0.223243    4.999193
H       0.667894    2.108928    0.067952
H      -0.637865    1.820748   -1.093920
H      -0.991383    1.881476    0.639824
H      -0.972404   -0.478416   -0.130594
H       1.830384    0.094011   -1.168798
H       1.052323   -1.502007   -1.114477
H       0.741563   -0.363466   -3.149551
H       0.905216   -1.462279    1.244214
H       1.584502    0.146563    1.439233
H      -0.493628    0.867190    2.657308
H      -1.189530   -0.737868    2.393036
H       2.188412   -0.241699    4.852926
H       1.362298    1.198589    4.077460
H      -0.841770    0.528598    4.992344
H      -0.122770   -0.946622    5.806744
