21

O       0.023217    1.389214   -0.183248
C       0.047522   -0.003343    0.094531
C      -1.377865   -0.510363    0.054914
C      -2.113328   -0.543672   -1.313155
C      -2.689324   -1.930038   -0.937511
C      -4.183886   -2.073482   -0.574387
O      -4.369675   -3.119517   -1.548356
C      -2.987517   -3.044638   -1.953283
C      -1.614689   -2.041412    0.172062
H       0.928347    1.713806   -0.183643
H       0.650787   -0.548543   -0.651465
H       0.489123   -0.208215    1.084328
H      -1.968796    0.036798    0.796505
H      -2.827098    0.254788   -1.529884
H      -1.405581   -0.612111   -2.146997
H      -4.395200   -2.420923    0.446277
H      -4.809425   -1.196406   -0.789383
H      -2.882087   -2.760171   -3.009348
H      -2.456615   -3.992025   -1.785634
H      -0.744506   -2.613092   -0.171117
H      -1.931359   -2.440097    1.139957
