16

C      -0.393589   -1.234877   -0.404585
C      -0.194252   -0.073643   -0.165325
C       0.013968    1.341744    0.071446
O      -0.149863    1.782637    1.457386
C       1.075902    2.555858    1.393775
C       2.334463    1.863584    1.937795
C       2.298017    0.416155    1.691871
N       2.654492    1.284908    0.548459
C       1.423199    1.990484    0.020127
H      -0.557967   -2.264327   -0.609151
H      -0.674667    1.911583   -0.569335
H       0.930919    3.611103    1.629112
H       3.099233    2.353957    2.531464
H       3.155462   -0.159832    2.026453
H       1.354312   -0.114179    1.715847
H       1.671567    2.580414   -0.859716
