18

O       0.254731    1.361902   -0.065192
C       0.049169    0.001413   -0.002592
C      -0.450171   -0.721818    1.256514
C      -0.895993    0.033013    2.438803
C      -1.999853    0.789630    2.482278
C      -2.922642    0.900533    1.330964
N      -2.450587    1.657690    0.138016
C      -2.575760    0.181917    0.069453
C      -1.317941   -0.633802   -0.011164
H      -0.620489    1.791203    0.015143
H       0.825124   -0.539691   -0.538855
H       0.035356   -1.670927    1.465019
H      -0.266856   -0.036754    3.322394
H      -2.261294    1.326872    3.388643
H      -3.976528    1.019013    1.569427
H      -3.228658    2.104961   -0.337495
H      -3.405801   -0.203829   -0.514799
H      -1.428864   -1.547711   -0.584843
