23

C      -0.268049    1.545318    0.026761
C       0.047300    0.050340   -0.009640
C       0.751810   -0.482282   -1.292957
C       2.051978    0.285762   -1.634930
C       2.748400   -0.540151   -0.529934
C       2.412918    0.018331    0.878787
C       0.971336   -0.495142    1.112569
C       1.111994   -1.970108    0.679503
C       1.643924   -1.646491   -0.715338
H       0.630989    2.167557    0.016676
H      -0.878723    1.837512   -0.834893
H      -0.831238    1.799189    0.931461
H      -0.909026   -0.483368    0.076734
H       0.052109   -0.685985   -2.106579
H       2.416120    0.012707   -2.630441
H       2.063055    1.376622   -1.549156
H       3.801478   -0.796784   -0.660357
H       3.084434   -0.401092    1.636020
H       2.508302    1.107483    0.930707
H       0.591183   -0.323458    2.122710
H       1.824535   -2.534650    1.290687
H       0.157848   -2.507463    0.670605
H       1.881432   -2.466661   -1.392075
