14

N       0.039512    1.340997    0.009542
C       1.146244    2.111930    0.002616
C       2.353230    1.470875   -0.012801
C       3.715464    1.819453   -0.024461
C       4.435413    0.621522   -0.038069
C       3.567046   -0.498702   -0.035448
C       2.271144   -0.004075   -0.019820
N       1.095865   -0.671648   -0.011670
N      -0.017809   -0.034079    0.002804
H      -0.881854    1.749881    0.020903
H       0.991276    3.186023    0.009890
H       4.125890    2.818813   -0.023183
H       5.516429    0.556466   -0.049189
H       3.853274   -1.539649   -0.043904
