17

C      -0.034140   -1.169497   -0.144313
C       0.057656    0.014568    0.031542
C       0.136879    1.450364    0.261412
O       1.345008    1.960812   -0.276532
C       1.464154    3.345400   -0.127384
C       1.839958    3.962622    1.280520
C       3.061798    4.583856    0.593034
O       3.846708    3.495788    0.106125
C       2.751546    3.938850   -0.697626
H      -0.107083   -2.216933   -0.303676
H      -0.730460    1.949612   -0.204107
H       0.076982    1.655654    1.342712
H       0.583726    3.864316   -0.539015
H       1.100481    4.677483    1.647345
H       2.094038    3.241550    2.060286
H       3.566983    5.519753    0.798287
H       2.967661    4.228221   -1.719213
