20

C       0.329585    1.517712   -0.032034
C       0.184429   -0.006662    0.040747
C       0.838438   -0.561704    1.312507
C      -1.311713   -0.429173   -0.032171
N      -1.997714    0.116940   -1.204994
C      -2.941217    1.093326   -1.111981
O      -3.241811    1.679387   -0.093854
C      -1.474149   -1.884564   -0.014796
C      -1.593155   -3.080342   -0.046684
H       1.385597    1.798768    0.026491
H      -0.075025    1.920023   -0.963720
H      -0.196832    2.002388    0.797077
H       0.686924   -0.451329   -0.829374
H       0.360534   -0.147513    2.208256
H       0.765487   -1.650835    1.363349
H       1.897375   -0.288404    1.346214
H      -1.830948    0.009989    0.828223
H      -1.882567   -0.362274   -2.084432
H      -3.406689    1.307568   -2.094014
H      -1.711019   -4.135945   -0.051618
