18

N       0.304553   -1.181886    0.373417
C       0.153123   -0.054417    0.163783
C      -0.064278    1.354479   -0.100546
C       0.085680    2.325476    1.059122
C       1.118194    2.286204   -0.034797
O      -0.984009    1.626192   -1.112374
C      -2.299333    1.199496   -0.844978
C      -3.272850    2.147296   -0.197003
C      -3.363981    1.828629   -1.677360
H      -0.611951    3.153231    1.066884
H       0.338487    1.922193    2.032538
H       2.090987    1.858605    0.174510
H       1.106110    3.080614   -0.771672
H      -2.374721    0.139212   -0.614000
H      -4.017601    1.741015    0.478304
H      -2.910406    3.134028    0.066022
H      -3.044284    2.602048   -2.366424
H      -4.172931    1.203829   -2.037565
