18

C       0.143573    1.415752   -0.499426
C       1.402912    1.625557    0.385904
C       1.312740    0.129916    0.791050
C      -0.154049    0.114473    0.298187
C       2.283567   -0.824074    0.078726
O       3.316869   -1.005972    1.034378
C       2.641224   -1.043574    2.264515
O       1.537102   -0.161670    2.165154
H      -0.617004    2.197816   -0.476795
H       0.397815    1.210605   -1.542923
H       2.327414    1.968134   -0.086234
H       1.188788    2.256526    1.252202
H      -0.833940    0.294651    1.134481
H      -0.493310   -0.768392   -0.251654
H       1.787673   -1.781524   -0.151173
H       2.722050   -0.418129   -0.834929
H       2.279436   -2.063873    2.486832
H       3.323979   -0.708767    3.052545
