17

C      -0.304064    1.231599   -1.373793
C       0.244563   -0.110636   -0.923129
O       1.647920   -0.305169   -1.258515
C       2.026496   -0.564243    0.123074
C       3.114701    0.362311    0.633543
C       0.596363   -0.302674    0.535482
N       0.036779   -0.256518    1.665897
O      -1.334490    0.039230    1.541162
H       0.285423    2.053816   -0.959615
H      -0.272261    1.297109   -2.465619
H      -1.340529    1.339368   -1.042763
H      -0.369608   -0.929636   -1.324916
H       2.326643   -1.614531    0.249011
H       2.816640    1.408731    0.528901
H       3.314445    0.157776    1.690024
H       4.037527    0.202899    0.067628
H      -1.625311    0.049196    2.459451
