16

C      -0.009178    1.440640    0.088818
N       0.135109    0.000486   -0.059657
C       0.688359   -0.702710    1.002410
N       1.326081   -0.119947    2.012531
N       1.746237   -1.156483    2.780304
C       1.385799   -2.368681    2.281307
C       0.692697   -2.121236    1.116389
N       0.038856   -2.990732    0.212304
H       0.978431    1.890349    0.218730
H      -0.460601    1.847128   -0.819780
H      -0.619839    1.732918    0.956248
H      -0.699367   -0.459090   -0.402018
H       2.228117   -0.959744    3.637894
H       1.641815   -3.291794    2.777645
H       0.083125   -3.955689    0.516514
H       0.450556   -2.938062   -0.715092
