18

C       0.075393    1.574859   -0.052267
C       0.406538    0.102790   -0.039668
N       1.770193   -0.284868    0.367812
C       0.617411   -0.712300    1.190983
C       0.535291   -0.172752    2.606954
C       1.632854   -0.721191    3.529124
N       2.896493   -0.442389    3.096419
O       1.390787   -1.312041    4.563481
H       0.558137    2.104143    0.771789
H       0.420780    2.032747   -0.985110
H      -1.006333    1.730323    0.019254
H      -0.010343   -0.447768   -0.882391
H       2.112275   -1.057778   -0.195643
H       0.337845   -1.761741    1.111812
H       0.610370    0.918743    2.601402
H      -0.422693   -0.443840    3.055590
H       3.034869   -0.113037    2.150708
H       3.665213   -0.850577    3.603014
