13

O      -0.064044    0.001072    0.000290
C      -0.001510    1.194755    0.008382
N       1.201701    1.928122    0.000188
N       2.412193    1.319167   -0.017985
C       3.287882    2.306965   -0.020617
C       2.666834    3.580298   -0.004185
C       1.316165    3.314712    0.009142
C       0.208410    4.185987    0.028132
C      -0.726830    4.944505    0.044076
H      -0.866893    1.876703    0.023216
H       4.344922    2.082922   -0.034227
H       3.128559    4.553717   -0.002219
H      -1.551604    5.614196    0.057435
