21

C       0.494791    1.544591   -0.558160
C       0.119526    0.143034   -0.127971
C       1.127460   -0.982057   -0.121768
C       0.568930   -0.471192    1.183316
C       1.418082    0.243812    2.213417
C       0.682666    1.045576    3.284747
C       1.321729   -0.258338    3.653719
C       2.712288    0.731116    1.812783
C       3.805528    1.130081    1.503927
H       1.516127    1.798616   -0.267014
H       0.421446    1.645280   -1.646962
H      -0.174980    2.288430   -0.111737
H      -0.887351   -0.145584   -0.422033
H       0.830072   -1.966564   -0.466623
H       2.157359   -0.721420   -0.343129
H      -0.172832   -1.109239    1.656913
H       1.143989    1.962261    3.632066
H      -0.397783    1.084028    3.197522
H       0.685318   -1.119325    3.827435
H       2.227092   -0.236914    4.248184
H       4.767045    1.484937    1.226952
