19

C       0.461764    1.130225   -0.587761
C      -0.301633    0.252985    0.408295
C       0.586377   -0.432710    1.399818
C       1.952424   -0.409925    1.562049
C       3.420269   -0.056986    1.338947
C       3.700382   -0.997099    2.571015
N       2.237718   -1.220174    2.625714
C       1.071864   -1.726429    3.104826
N       0.068215   -1.265649    2.379153
H       1.178358    0.539255   -1.168323
H      -0.222721    1.610678   -1.292750
H       1.020205    1.920070   -0.073875
H      -1.040430    0.858856    0.948415
H      -0.885356   -0.502973   -0.132477
H       3.861011   -0.400220    0.399945
H       3.693376    0.988845    1.498327
H       4.272845   -1.902650    2.356625
H       4.100380   -0.504918    3.460652
H       0.992642   -2.399596    3.943891
