20

C      -0.353194    1.536283    0.135499
C       0.167516    0.110974   -0.077497
C       0.806846   -0.484382    1.175972
C      -0.096502   -1.106709    2.238367
C       0.803960   -1.995211    1.428259
C       0.260749   -2.999482    0.435941
C       1.970226    0.224408    1.645135
C       2.947715    0.819884    2.018284
H       0.455093    2.204442    0.446145
H      -0.789054    1.933541   -0.786269
H      -1.124289    1.561087    0.912741
H      -0.656478   -0.532355   -0.400746
H       0.905141    0.105681   -0.889052
H       0.137402   -0.924363    3.280536
H      -1.158286   -1.124409    2.009861
H       1.693092   -2.337855    1.949820
H      -0.672012   -2.666784   -0.026623
H       0.980257   -3.201372   -0.364994
H       0.051088   -3.949173    0.940607
H       3.808781    1.342755    2.353129
