19

C      -0.474830    0.739961   -0.536931
C      -0.306550   -0.671526    0.004347
O       0.399435   -1.515572   -0.931916
C       1.738443   -1.469279   -0.884979
O       2.377483   -0.779087   -0.131324
C       2.380506   -2.365498   -1.945057
C       1.666902   -3.591428   -2.270670
C       1.101109   -4.617151   -2.544321
C       0.406271   -5.853912   -2.870305
H       0.496396    1.228618   -0.643460
H      -0.975831    0.726765   -1.509154
H      -1.082834    1.331160    0.155274
H       0.236849   -0.667436    0.951929
H      -1.271288   -1.165573    0.140046
H       2.491565   -1.741459   -2.843620
H       3.395984   -2.571989   -1.593674
H       0.951401   -6.728275   -2.497946
H      -0.594884   -5.873855   -2.425666
H       0.289644   -5.972540   -3.953223
