15

N      -0.054863    1.418873   -0.442622
C      -0.019713    0.151892    0.278818
C      -1.386794   -0.498088    0.197767
O      -1.716673   -1.103695   -1.056108
C      -1.562515   -1.973952    0.074352
C      -0.453130   -2.887051    0.085581
C       0.439588   -3.691071    0.113599
C      -2.474839    0.244210    0.816971
N      -3.334970    0.806019    1.345326
H       0.794820    1.945507   -0.275026
H      -0.110497    1.247152   -1.441576
H       0.716515   -0.578251   -0.085801
H       0.205772    0.353660    1.331892
H      -2.502363   -2.383151    0.442058
H       1.233267   -4.397456    0.134589
