17

C       0.260413    1.553789   -0.209869
C      -0.049198    0.077743    0.046766
O       0.334855   -0.729782   -1.066238
C       0.700983   -0.469493    1.254986
C       1.086490   -1.918899    1.298218
N       2.112760   -0.896520    1.113686
C       0.402472    0.149634    2.576803
O      -0.513160    0.905989    2.794009
H       1.333412    1.703816   -0.365749
H      -0.269516    1.901199   -1.104518
H      -0.067829    2.165182    0.632768
H      -1.125700   -0.032305    0.242956
H      -0.002913   -0.313564   -1.864481
H       1.117165   -2.437840    2.252636
H       0.780396   -2.513819    0.445088
H       2.334145   -0.845436    0.120094
H       1.107230   -0.168089    3.376237
