15

N      -0.022731    1.416302    0.112967
C      -0.020331    0.021609    0.035088
C      -1.202682   -0.676754   -0.014301
N      -2.449435   -0.069366   -0.051108
C      -1.183685   -2.124691   -0.075599
O      -2.188353   -2.829654   -0.126626
N       0.093711   -2.664862   -0.064705
N       1.269318   -2.020609    0.010413
C       1.198137   -0.720105    0.054616
H       0.868048    1.844218   -0.099679
H      -0.762865    1.839629   -0.435073
H      -2.565293    0.693885    0.604023
H      -3.181265   -0.767508    0.033631
H       0.155123   -3.673342   -0.091194
H       2.151062   -0.201545    0.108644
