18

C      -0.445055    1.560692    0.036813
C      -0.012926    0.106063   -0.026554
O      -1.047735   -0.723227   -0.527905
C       1.282164   -0.250968   -0.819251
C       1.887103   -0.886367    0.444164
O       2.667059    0.074403    1.230228
C       1.573089    0.367361    2.028156
N       1.473811    1.125840    3.022764
C       0.626664   -0.531689    1.273903
H       0.359255    2.205741    0.398161
H      -0.750510    1.898451   -0.958409
H      -1.293636    1.684398    0.720540
H      -1.840987   -0.555659   -0.005984
H       1.063648   -0.968143   -1.612371
H       1.855897    0.586105   -1.220777
H       2.377972   -1.857137    0.405358
H       2.366396    1.575126    3.236154
H       0.006064   -1.228539    1.832606
