17

N       0.035372    1.217445    0.079485
C      -0.106801   -0.143075    0.056880
N      -1.182985   -0.805195   -0.139047
C      -0.777293   -2.187285   -0.207795
C       0.178573   -2.567897   -1.327820
C       0.718553   -2.210523    0.029264
C       1.538378   -3.112791    0.903725
O       1.405576   -2.806286    2.279212
O       1.068094   -0.831441    0.204795
H       0.805466    1.562086    0.632433
H      -0.833751    1.711302    0.213623
H      -1.465619   -2.922782    0.191581
H       0.229431   -3.617425   -1.599441
H       0.315014   -1.869316   -2.146723
H       1.194306   -4.143057    0.771484
H       2.593298   -3.075172    0.585884
H       1.618582   -1.871658    2.373906
