19

C      -0.004662    1.496745    0.040987
C      -0.000623    0.001188   -0.010450
C      -0.008592   -0.718620   -1.147163
C      -0.002962   -2.195039   -1.043506
O      -0.009438   -2.940627   -2.001864
C       0.011406   -2.696164    0.400688
C      -1.054444   -1.903736    1.221453
C       0.013477   -0.768327    1.297930
C       1.086830   -1.897149    1.202346
H       0.877613    1.868645    0.577736
H      -0.016158    1.939527   -0.957621
H      -0.877931    1.863387    0.595738
H      -0.018914   -0.273652   -2.136671
H       0.014941   -3.785939    0.421520
H      -2.008752   -1.671372    0.743415
H      -1.228111   -2.366971    2.196534
H       0.019201   -0.107602    2.166973
H       1.280719   -2.359264    2.174143
H       2.031010   -1.658946    0.707369
