16

C      -0.030693    1.487093   -0.003342
C      -0.032116   -0.015309   -0.025465
N       0.890915   -0.674401   -0.913051
C       0.538970   -1.992034   -1.147566
O       1.142624   -2.805994   -1.803745
C      -0.702878   -2.198041   -0.263550
O      -0.121073   -2.180233    1.092098
C      -0.482599   -0.813450    1.215482
C      -1.317730   -0.803329   -0.040723
H       0.929250    1.879815    0.349639
H      -0.221341    1.892565   -1.002332
H      -0.807475    1.860128    0.670926
H       1.858685   -0.399763   -0.991016
H      -1.301676   -3.085668   -0.450916
H      -0.612592   -0.406320    2.211999
H      -2.304314   -0.437423   -0.292269
