25

C      -0.047776    1.557557    0.161539
C      -0.003080    0.031825    0.034365
C      -1.398712   -0.588159   -0.086635
O      -2.068176   -0.144792   -1.266020
C      -1.425802   -2.142966    0.021383
C      -2.888234   -2.610512    0.011752
C      -0.639123   -2.805599   -1.120141
O      -0.808503   -2.386279    1.292867
C      -0.731665   -3.719720    1.742475
H       0.960460    1.981682    0.191931
H      -0.583360    2.006185   -0.680001
H      -0.564474    1.858541    1.079469
H       0.591937   -0.246361   -0.847909
H       0.498165   -0.412432    0.897884
H      -2.014073   -0.218028    0.742805
H      -1.447959   -0.214457   -1.999517
H      -3.396778   -2.197960   -0.861881
H      -2.970338   -3.700556   -0.026282
H      -3.402804   -2.254669    0.909900
H       0.425385   -2.563259   -1.062951
H      -0.742806   -3.893850   -1.097377
H      -1.025708   -2.470635   -2.087651
H      -0.229937   -3.689751    2.713394
H      -1.720619   -4.178244    1.879672
H      -0.142850   -4.360682    1.071416
