20

C      -0.055048    1.741246   -0.263420
C       0.091719    0.215704   -0.139223
C      -1.288145   -0.419682    0.103273
O      -1.251930   -1.814033    0.361868
C       0.767574   -0.334859   -1.384397
C       2.266278   -0.279371   -1.525049
N       1.579699   -1.536878   -1.383009
C       1.790021   -2.451632   -0.368107
O       2.866868   -2.688808    0.128066
H       0.917539    2.221017   -0.400753
H      -0.682708    2.006594   -1.121956
H      -0.520191    2.165855    0.631614
H       0.730516   -0.007844    0.727728
H      -1.794922    0.117953    0.918195
H      -1.906922   -0.298146   -0.793974
H      -0.917700   -1.943591    1.255131
H       0.178737   -0.208154   -2.294237
H       2.716714   -0.081096   -2.493873
H       2.844456    0.060954   -0.668452
H       0.861730   -2.989647   -0.116161
