19

C       0.077604    1.529117   -0.133027
O       1.491650    1.470965    0.244859
C       1.211355    0.224172    0.937883
C       1.769193   -1.199752    0.791219
C       0.473975   -1.904616    1.409471
C      -0.770023   -1.060575    0.880384
C      -0.005473   -0.001449    0.054669
C       0.618330   -0.727681   -1.132974
C       1.671380   -1.423491   -0.702954
H      -0.500719    2.119540    0.590744
H      -0.053664    1.930287   -1.142237
H       0.986950    0.455785    1.988487
H       2.696455   -1.483933    1.288867
H       0.427595   -2.947893    1.092241
H       0.511611   -1.887894    2.502892
H      -1.465560   -1.668884    0.298867
H      -1.318649   -0.618378    1.716515
H       0.190439   -0.711069   -2.128373
H       2.296596   -2.101344   -1.270358
