18

O      -0.190250   -0.076082   -0.074557
C      -0.070065    1.120885   -0.019515
C       1.240663    1.870440   -0.060524
C       1.300642    2.864495   -1.239302
C       2.560851    3.771934   -1.218904
C       2.955481    3.973235   -2.703355
C       2.278515    2.810697   -3.391457
C       1.385784    2.213329   -2.605215
H      -0.967655    1.780859    0.059110
H       1.325542    2.434797    0.879647
H       2.062702    1.150230   -0.108808
H       0.392148    3.486759   -1.192743
H       2.391877    4.711774   -0.686829
H       3.368020    3.244449   -0.698626
H       2.579946    4.927323   -3.099788
H       4.040985    3.987149   -2.851066
H       2.485638    2.539310   -4.420848
H       0.756224    1.376776   -2.889237
