19

C       0.080946    1.501481    0.010341
O       1.213503    0.620838   -0.006917
C      -0.094846    0.049058    0.013931
C      -0.492133   -0.806815    1.231128
C      -1.086786   -2.048785    0.532522
C      -0.196503   -2.199330   -0.711455
C      -0.534211   -0.771682   -1.198142
C      -2.072446   -0.842752   -1.159143
O      -2.359744   -1.679108   -0.021964
H      -0.056012    2.067198    0.931362
H      -0.081111    2.069133   -0.906076
H       0.395264   -1.046735    1.825155
H      -1.230276   -0.325599    1.876870
H      -1.232453   -2.922373    1.167592
H       0.863388   -2.334656   -0.484020
H      -0.540974   -2.988905   -1.383081
H      -0.110378   -0.435335   -2.143874
H      -2.542009    0.139509   -1.025731
H      -2.484585   -1.304214   -2.065627
