22

C       0.085326    1.522562   -0.147859
C      -0.023776    0.007011    0.006687
C      -1.472140   -0.476313   -0.017083
O      -2.415374    0.246159   -0.300637
N      -1.652339   -1.783434    0.313647
C      -0.744804   -2.931695    0.397854
C      -1.991540   -3.859649    0.385133
C      -2.872749   -2.592441    0.158314
C      -3.984310   -2.302633    1.153943
H       1.133448    1.834546   -0.169944
H      -0.400101    1.851245   -1.069271
H      -0.411731    2.035429    0.679661
H       0.517942   -0.502315   -0.802650
H       0.451276   -0.331384    0.936070
H      -0.085967   -3.041702   -0.472534
H      -0.130071   -2.961722    1.304331
H      -2.014968   -4.602487   -0.412411
H      -2.181838   -4.352555    1.340333
H      -3.265295   -2.519975   -0.864032
H      -3.614994   -2.374146    2.182340
H      -4.374624   -1.295077    0.993182
H      -4.802018   -3.020771    1.028540
