17

C      -0.015093    1.504664   -0.128919
C       0.011735    0.008327    0.057277
N       1.296979   -0.680317   -0.068835
C       0.622710   -0.678418    1.252284
C       1.345525    0.053249    2.371585
C       2.570120   -0.702492    2.867419
O       2.920861   -0.728377    4.016484
C      -0.024932   -1.909496    1.656315
N      -0.529822   -2.900615    1.974959
H       0.900437    1.976960    0.231846
H      -0.108198    1.739380   -1.194148
H      -0.871729    1.945520    0.390299
H      -0.857513   -0.508296   -0.346077
H       1.194616   -1.583028   -0.525414
H       1.703900    1.013618    1.985388
H       0.683959    0.253279    3.218475
H       3.145818   -1.218151    2.067980
