17

O       0.122247    1.407446    0.033345
C       0.033435   -0.005368   -0.114919
C      -1.393162   -0.494024   -0.096707
C      -2.424421    0.038743   -1.076795
C      -3.552394   -0.610538   -0.775787
C      -3.172193   -1.513385    0.381518
C      -1.713611   -2.021686    0.124460
O      -1.377569   -1.938623    1.553626
C      -2.152661   -0.727428    1.274038
H      -0.193997    1.629308    0.914939
H       0.492423   -0.226144   -1.085059
H       0.606869   -0.537947    0.656222
H      -2.239517    0.791787   -1.829721
H      -4.530796   -0.530545   -1.228339
H      -3.888977   -2.179940    0.857438
H      -1.362977   -2.894466   -0.433036
H      -2.339745   -0.037226    2.102338
