20

C       0.061017    1.609776   -0.024438
C      -0.043133    0.076996    0.024268
C      -1.525817   -0.342709    0.119376
C       0.661520   -0.586387   -1.197253
C       1.421362   -1.833142   -0.645314
C       1.512921   -1.533938    0.844712
C       0.735476   -0.511858    1.185854
C       0.721684   -3.099177   -0.896820
N       0.166190   -4.094946   -1.089800
H       1.105631    1.936646   -0.045105
H      -0.436589    2.005365   -0.916710
H      -0.417481    2.064460    0.849796
H      -2.098788    0.075032   -0.715864
H      -1.632527   -1.431165    0.096394
H      -1.977457    0.020157    1.048930
H      -0.035144   -0.844914   -1.997263
H       1.402537    0.101947   -1.613065
H       2.412143   -1.923869   -1.105794
H       2.118044   -2.135891    1.511478
H       0.618469   -0.134410    2.196942
