13

O      -0.043038    1.394012    0.137431
C       0.028794    0.043797   -0.030051
C       0.011357   -0.789797   -1.126361
N       0.013355   -0.928480   -2.485342
N      -0.001347   -2.261753   -2.819225
N       0.014771   -2.981262   -1.754226
C       0.023469   -2.135890   -0.662544
C       0.032854   -2.127020    0.722736
N       0.037176   -0.797795    1.068976
H       0.829282    1.784881    0.007002
H      -0.076233   -0.249256   -3.219961
H       0.030142   -2.906997    1.463492
H       0.011102   -0.445775    2.012289
