19

O      -0.013356    1.409010    0.005491
C       0.019998   -0.004189   -0.066976
C      -1.366798   -0.589803    0.045379
C      -2.158034   -0.444641    1.390315
C      -2.643036   -1.881561    1.189271
C      -3.074183   -2.087262   -0.254389
C      -3.347593   -0.851465   -1.104399
O      -2.139264   -0.084205   -1.048861
C      -1.615644   -2.119102    0.090685
H      -0.677957    1.689944   -0.634626
H       0.476018   -0.352033   -1.008202
H       0.644611   -0.353657    0.760958
H      -1.480054   -0.360805    2.243574
H      -2.896753    0.361462    1.435886
H      -2.959910   -2.566043    1.967217
H      -3.584805   -3.014289   -0.486800
H      -3.549329   -1.109857   -2.150299
H      -4.192565   -0.258183   -0.728862
H      -0.924787   -2.929958   -0.096899
