19

C      -0.181196    1.515587    0.203202
N      -0.011618    0.080682    0.135018
C      -1.217058   -0.770063    0.295673
C      -0.443014   -1.696813    1.254452
N       0.491529   -2.627945    0.584169
C       1.651801   -1.714899    0.791986
C       0.688508   -0.592317    1.236917
C      -1.087307   -2.144984    2.524377
O      -2.106716   -1.688335    2.980252
H       0.795862    2.008102    0.158008
H      -0.764377    1.854724   -0.659157
H      -0.699533    1.857926    1.118679
H      -2.037777   -0.269510    0.828279
H      -1.582734   -1.223901   -0.629738
H       0.577864   -3.530249    1.040466
H       2.327250   -2.025187    1.600166
H       2.230709   -1.516431   -0.114869
H       0.955678    0.029514    2.096012
H      -0.526622   -2.950426    3.057749
