19

C      -0.021298    1.501585    0.037189
C      -0.002609    0.007407   -0.026598
C      -0.021349   -0.761079   -1.119034
C       0.007256   -2.235477   -0.794672
O       1.192996   -2.547947   -0.071332
C       1.286116   -1.757916    1.116489
C       0.042410   -0.848034    1.223955
C      -1.180090   -1.791466    1.182455
O      -1.129430   -2.579268   -0.009404
H       0.866296    1.888529    0.553873
H      -0.053190    1.944243   -0.962164
H      -0.891245    1.864572    0.599297
H      -0.053511   -0.401733   -2.141283
H      -0.007041   -2.892639   -1.663114
H       1.335052   -2.434636    1.979998
H       2.209694   -1.165411    1.085981
H       0.059297   -0.268734    2.150414
H      -1.164184   -2.468785    2.046740
H      -2.119748   -1.224337    1.202097
