23

C      -0.114138    1.559289    0.067197
C       0.003207    0.034003   -0.003670
C       0.756099   -0.564558    1.179531
O       0.056697   -0.238048    2.383011
C       0.417525   -1.184154    3.383900
C       0.672889   -2.480373    2.638317
C      -0.350338   -2.836777    1.588043
C       0.901940   -2.087129    1.196771
C       1.948996   -2.720083    0.314374
H       0.874582    2.031918    0.077168
H      -0.662913    1.952852   -0.793878
H      -0.638046    1.862670    0.977042
H      -0.993799   -0.419016   -0.048619
H       0.526137   -0.258834   -0.922866
H       1.773508   -0.129464    1.212452
H       1.327153   -0.868481    3.921509
H      -0.408108   -1.227457    4.102651
H       1.257448   -3.258500    3.116330
H      -0.413913   -3.877210    1.287653
H      -1.298788   -2.308942    1.598720
H       1.710506   -2.591452   -0.748034
H       2.937007   -2.277007    0.487647
H       2.027547   -3.795021    0.503804
