19

C      -0.026249    1.511989    0.051855
C       0.035501    0.002883    0.028550
C      -0.853552   -0.808439    0.956191
C       0.646304   -0.756268    1.168835
C       1.526257   -1.939870    0.823727
N       1.107821   -2.542634   -0.431945
C       0.711391   -1.822161   -1.540993
O       0.674017   -2.305888   -2.658853
N       0.337834   -0.516546   -1.283431
H       0.921219    1.946572   -0.282852
H      -0.821069    1.883045   -0.606776
H      -0.238480    1.874879    1.061000
H      -1.485563   -0.279198    1.661274
H      -1.273029   -1.729282    0.566802
H       1.008522   -0.170976    2.008696
H       2.572755   -1.596722    0.781892
H       1.470515   -2.705266    1.607009
H       1.510897   -3.432031   -0.682690
H      -0.166354   -0.113486   -2.060464
