18

C      -0.179616    1.521907    0.028964
C       0.020603    0.012855    0.035967
C       1.180449   -0.601097   -0.854187
C       2.150803   -0.225051    0.320427
C       0.905372   -0.628661    1.175003
C       0.788844   -2.112073    0.772649
C       0.971349   -2.081443   -0.561089
C       0.533883   -3.198597    1.633793
N       0.324444   -4.072423    2.366917
H       0.746387    2.086664    0.161068
H      -0.630970    1.838825   -0.917530
H      -0.865340    1.814454    0.831588
H      -0.944496   -0.484139   -0.100379
H       1.353674   -0.294348   -1.884771
H       3.051838   -0.830703    0.435581
H       2.398540    0.836603    0.367902
H       0.794466   -0.373366    2.227600
H       0.960316   -2.897564   -1.268713
