19

C      -0.044795    1.466384   -0.243391
C       0.162331   -0.009884   -0.002456
N       1.551501   -0.516788    0.014308
C       0.749892   -0.586112    1.241364
C       1.207144    0.264734    2.406997
C       0.226835   -1.965089    1.669303
O      -0.132767   -2.709474    0.518678
C       1.242832   -2.706893    2.450863
N       2.008916   -3.323885    3.057400
H       0.745793    2.067978    0.208875
H      -0.041679    1.672620   -1.318962
H      -1.009295    1.797261    0.157231
H      -0.563843   -0.648470   -0.498848
H       1.579083   -1.433601   -0.427123
H       1.587496    1.223551    2.055123
H       0.384339    0.454503    3.106052
H       2.014178   -0.229485    2.957213
H      -0.641156   -1.814787    2.330439
H      -0.370052   -3.603030    0.787046
