16

C       0.002835    1.408801    0.043595
O       0.046927   -0.011465   -0.022335
C       0.636459   -0.628326    1.020939
C       0.785185   -1.989084    1.157839
N       1.438473   -2.149032    2.368908
C       1.829604   -3.404835    2.971416
C       1.639278   -0.908506    2.876074
N       1.166305    0.038864    2.086459
H       1.009476    1.837342    0.090142
H      -0.499488    1.733089   -0.869547
H      -0.556937    1.750133    0.920729
H       0.501109   -2.820512    0.537424
H       2.524316   -3.949464    2.324083
H       2.325084   -3.202110    3.922878
H       0.956058   -4.037172    3.159470
H       2.134430   -0.751641    3.822985
