18

C      -0.017334    1.634990   -0.080607
C       0.102017    0.122062    0.019905
C       1.131785   -0.687250   -0.798561
C       2.532465   -0.146449   -0.451810
C       2.235322   -0.720993    0.918884
N       1.252929   -1.714538    0.378624
C       0.768944   -0.544004    1.223254
C       0.228470   -0.690291    2.532200
C      -0.248285   -0.773008    3.633929
H       0.943511    2.136520    0.064489
H      -0.411616    1.931765   -1.058553
H      -0.705353    2.012163    0.683043
H      -0.879323   -0.346450   -0.110549
H       0.892924   -1.051446   -1.795454
H       3.309186   -0.734928   -0.946938
H       2.744024    0.919823   -0.571044
H       2.929530   -0.991966    1.706249
H      -0.666494   -0.858577    4.606144
