20

C      -0.230796    1.611771   -0.145712
C      -0.018017    0.086295   -0.036330
C      -1.301361   -0.604366    0.133682
N      -2.313594   -1.150064    0.251628
C       0.745845   -0.466859   -1.225017
C       0.109308   -0.838455   -2.535671
C       0.873583   -1.889619   -1.772957
C       2.379672   -1.696688   -1.983142
C       2.253124   -0.238837   -1.428495
H       0.738162    2.110074   -0.237387
H      -0.828692    1.852889   -1.028155
H      -0.740185    2.002845    0.738426
H       0.567218   -0.115313    0.871915
H      -0.969664   -0.953948   -2.513361
H       0.501330   -0.441181   -3.469815
H       0.387554   -2.794072   -1.427329
H       2.992704   -2.330395   -1.339104
H       2.733298   -1.801127   -3.013812
H       2.530102    0.577975   -2.102726
H       2.793602   -0.109629   -0.486610
