19

C      -0.143251    1.463355    0.082777
C       1.272193    0.946122   -0.018624
C       0.091702   -0.013490   -0.040131
O      -0.178847   -0.714907    1.151361
C       0.203101   -2.065595    1.166838
C      -0.910815   -3.070807    1.053440
C       0.055129   -2.849931   -0.104454
C      -0.315197   -2.069239   -1.310148
C      -0.250868   -0.737425   -1.287681
H      -0.481087    1.807712    1.053387
H      -0.573586    1.985813   -0.764886
H       1.826867    1.107735   -0.936349
H       1.868606    0.945986    0.886560
H       1.041170   -2.271689    1.828824
H      -0.838001   -3.999410    1.609352
H      -1.909265   -2.660769    0.954105
H       0.774222   -3.647326   -0.273177
H      -0.593940   -2.604126   -2.213229
H      -0.452338   -0.139317   -2.171422
