19

C       0.431035    1.515074   -0.160005
C      -0.082384    0.096794    0.015132
O      -0.489204   -0.328044    1.067739
C      -0.073597   -0.765011   -1.249556
O      -0.175061   -2.167030   -0.976501
C      -1.488128   -2.258967   -1.572315
C      -1.418506   -0.797033   -2.000741
C      -2.515106    0.218119   -2.081582
C      -1.765613   -0.200917   -3.327782
H       1.523018    1.494771   -0.261905
H       0.038536    1.974510   -1.074276
H       0.164333    2.118785    0.708233
H       0.803102   -0.527160   -1.869132
H      -1.520746   -2.999869   -2.380813
H      -2.254981   -2.495043   -0.824255
H      -3.533683   -0.132956   -1.950224
H      -2.338869    1.213057   -1.686329
H      -1.071829    0.507821   -3.769637
H      -2.275972   -0.831636   -4.049111
