14

C      -0.250245    1.616871    1.204453
C      -0.191152    0.426050    0.224911
C       0.755382   -0.597289    0.656085
C       1.529007   -1.442765    1.023461
C      -1.628835   -0.096433   -0.041217
N      -1.791097   -1.441020    0.002386
O      -2.524759    0.683376   -0.297115
H       0.723683    2.107200    1.268573
H      -0.997988    2.327098    0.848973
H      -0.532864    1.278818    2.205139
H       0.138624    0.809769   -0.750437
H       2.225722   -2.177371    1.344642
H      -1.035227   -2.049816    0.266501
H      -2.710281   -1.817034   -0.160341
