22

C      -0.276622    1.497012   -0.046045
C       0.091632    0.011225    0.087971
C       0.868836   -0.496834   -1.089278
N       0.233665   -0.749006   -2.413025
C       0.992987   -1.835053   -1.729601
C       2.467378   -1.614758   -2.083669
C       2.905231   -1.754161   -3.533659
C       2.321718   -0.154073   -1.474272
O       2.491700    0.946610   -2.325391
H       0.618414    2.107807   -0.196803
H      -0.934805    1.662249   -0.905089
H      -0.791647    1.857082    0.849425
H       0.688219   -0.138758    0.997074
H      -0.817101   -0.592711    0.215163
H      -0.758383   -0.914786   -2.247543
H       0.496071   -2.764075   -1.473515
H       3.107253   -2.213928   -1.427311
H       2.215422   -1.233668   -4.202676
H       3.903795   -1.331128   -3.680256
H       2.935479   -2.807320   -3.833611
H       2.975744    0.000918   -0.612406
H       1.771077    0.881820   -2.967591
