19

C      -0.167747    1.477024   -0.061420
C      -0.215450   -0.034887    0.069591
O       0.752460   -0.426582    1.035203
C       0.839494   -1.825335    1.246067
C       2.095651   -2.062786    2.102812
C       3.370991   -1.661956    1.387472
O       4.403694   -2.277019    1.461995
C      -0.357620   -2.373478    1.896597
C      -1.331139   -2.821241    2.441044
H       0.825226    1.807545   -0.379246
H      -0.899168    1.814893   -0.801431
H      -0.398005    1.952353    0.896078
H      -1.214111   -0.369552    0.383949
H       0.006346   -0.518957   -0.895628
H       0.963995   -2.335161    0.274188
H       1.999711   -1.441885    3.002996
H       2.170450   -3.106591    2.414733
H       3.289952   -0.733217    0.783960
H      -2.193098   -3.218693    2.918204
