25

C      -0.074944    1.582334    0.113995
C       0.019975    0.045831    0.073834
C       0.692593   -0.475296    1.357381
C      -1.402163   -0.538508   -0.015196
O      -2.153867   -0.133833    1.120819
C       0.774667   -0.436223   -1.189662
C       2.230289    0.023367   -1.329528
C       2.879868   -0.504956   -2.602538
O       4.217062   -0.028494   -2.642652
H       0.906994    2.042387    0.256109
H      -0.498267    1.974620   -0.818305
H      -0.721346    1.899990    0.935337
H       0.077636   -0.239984    2.229048
H       0.820738   -1.563621    1.320068
H       1.678802   -0.026373    1.505413
H      -1.880260   -0.187725   -0.944471
H      -1.339258   -1.637729   -0.069854
H      -3.036990   -0.504984    1.045237
H       0.749237   -1.535309   -1.209729
H       0.214233   -0.103947   -2.075411
H       2.294288    1.116590   -1.345397
H       2.829834   -0.315235   -0.477837
H       2.849760   -1.607361   -2.606379
H       2.308842   -0.162934   -3.481849
H       4.630814   -0.360659   -3.444463
