19

C       0.181287    1.312071    0.193024
O      -0.320171    0.076165   -0.266221
C       0.466065   -0.502551   -1.270470
C       1.700839   -1.338691   -0.865393
C       0.806663   -2.537187   -0.384864
C       1.611831   -3.526788   -1.250491
O       1.029973   -4.726547   -1.687753
C       1.534161   -2.257675   -2.125628
C       0.071597   -1.931510   -1.642092
H       1.172002    1.208007    0.660181
H       0.261935    2.045893   -0.624296
H      -0.520703    1.691932    0.939018
H       0.616959    0.202419   -2.104251
H       2.650396   -1.030267   -0.426983
H       0.379691   -2.665649    0.608580
H       2.607339   -3.791886   -0.880573
H       0.138058   -4.536287   -1.998580
H       1.940569   -2.066020   -3.119727
H      -0.864529   -2.270992   -2.088152
