17

O       0.026970    0.177241    1.010595
C      -0.045497    1.009630    0.142148
O       0.996382    1.508032   -0.547100
C       2.280287    1.014388   -0.198975
C       3.402647    1.522112   -1.040205
C       3.252165    1.987784    0.396196
C      -1.346140    1.624742   -0.286966
C      -1.452934    3.069741   -0.569439
O      -1.460360    2.115493   -1.619032
H       2.258852   -0.009690    0.149372
H       4.203465    0.836832   -1.293202
H       3.146551    2.231177   -1.818911
H       2.899973    3.001203    0.550832
H       3.944051    1.624782    1.147661
H      -2.209220    1.088822    0.100126
H      -2.399485    3.571337   -0.374620
H      -0.559495    3.686820   -0.506015
