20

C       0.026382    1.612287    0.340264
C      -0.019566    0.129849   -0.072890
C      -1.396682   -0.426668   -0.172944
C      -2.149683   -0.915692   -1.208033
N      -1.760497   -1.074785   -2.543015
C      -2.801441   -1.089872   -3.559175
C      -3.413915   -1.303041   -0.639202
C      -3.330373   -1.024278    0.686953
O      -2.124552   -0.496209    0.992798
H       1.059733    1.963065    0.426389
H      -0.490438    2.240290   -0.392187
H      -0.463945    1.755432    1.307154
H       0.476890   -0.003437   -1.041232
H       0.567279   -0.459951    0.644778
H      -0.998678   -0.460260   -2.792543
H      -2.331944   -1.150016   -4.544365
H      -3.427329   -1.980364   -3.441636
H      -3.461096   -0.207142   -3.539369
H      -4.260870   -1.730481   -1.151120
H      -4.018972   -1.138342    1.508084
