17

O       0.037183    1.391017   -0.148708
C      -0.093820    0.005359   -0.007599
C      -0.447591   -0.752390    1.248797
C      -1.566786   -0.117437    2.099964
C      -1.813093    1.415404    2.113773
O      -2.654839    1.329115    0.932446
C      -2.497744   -0.100742    0.882717
C      -1.391942   -0.714014   -0.009291
O      -1.666740   -1.727019   -0.911632
H       0.903966    1.635348    0.193996
H       0.634340   -0.561998   -0.594370
H       0.194957   -1.550037    1.604563
H      -1.816862   -0.671985    3.002604
H      -2.395545    1.754167    2.979066
H      -0.953901    2.070120    1.959029
H      -3.441026   -0.651509    0.828525
H      -1.647263   -1.355841   -1.801080
