20

O       0.214104    1.342595    0.148305
C       0.021890   -0.057776    0.198717
C      -1.415673   -0.504453    0.085585
C      -2.452513    0.336161    0.087442
C      -3.883088   -0.121070   -0.066649
C      -3.999819   -1.401619   -0.917693
C      -2.958119   -2.444960   -0.530134
N      -1.763464   -2.532186   -1.399929
C      -1.645334   -1.972164   -0.028367
H      -0.107058    1.642812   -0.708806
H       0.611669   -0.574281   -0.577916
H       0.439518   -0.379332    1.162755
H      -2.267511    1.399148    0.215296
H      -4.322327   -0.288810    0.928023
H      -4.482419    0.676240   -0.520044
H      -5.007474   -1.820981   -0.829094
H      -3.846135   -1.146045   -1.970602
H      -3.335951   -3.378700   -0.121211
H      -1.413252   -3.488226   -1.401986
H      -1.127481   -2.587726    0.706480
