17

N       0.475732    0.610115   -0.784059
C      -0.084638    0.093258    0.334017
O       0.394058    0.185234    1.451015
C      -1.407515   -0.680362    0.127802
C      -2.257578   -0.283387   -1.077051
O      -1.598797   -0.552565   -2.308012
O      -1.120662   -2.073380   -0.070880
C      -0.647347   -2.774451    0.992757
N      -0.382086   -3.997177    0.842577
H       1.381569    1.043662   -0.703482
H       0.083905    0.394281   -1.691193
H      -1.985438   -0.540144    1.048592
H      -3.213522   -0.821189   -1.022253
H      -2.463966    0.790088   -1.053032
H      -1.379375   -1.493397   -2.296433
H      -0.535913   -2.168546    1.896859
H      -0.048659   -4.388238    1.721418
