20

C       0.235494    1.594856    0.061305
C       0.169227    0.083050    0.078152
C       1.329462   -0.847921   -0.167133
N       2.576417   -0.339275    0.406749
C       3.599124    0.481917   -0.203061
C       2.025475   -0.216394    1.679518
O       2.474985    0.223711    2.704694
C       0.688598   -0.808748    1.214309
C      -0.133775   -1.815847    1.962504
H       1.165240    1.969820    0.495216
H       0.156423    1.977304   -0.962280
H      -0.589890    2.020139    0.641570
H      -0.764330   -0.314982   -0.322574
H       1.339516   -1.663859   -0.879822
H       3.175660    1.284171   -0.821801
H       4.186807    0.930121    0.602474
H       4.267209   -0.120506   -0.827445
H      -0.598834   -1.358968    2.842621
H      -0.934003   -2.219786    1.334410
H       0.480381   -2.653000    2.310492
