19

C       0.017062    1.445763    0.052411
O       1.468627    1.499736   -0.070201
C       1.502676    0.107784   -0.349242
C       2.503788   -0.880766    0.206667
C       1.874155   -2.209222   -0.323300
C       0.983692   -1.786775   -1.512897
C      -0.184845   -0.807166   -1.311020
C       1.176894   -0.337063   -1.805606
C       0.003763   -0.105740    0.018423
H      -0.310944    1.899548    0.992692
H      -0.480235    1.943094   -0.788827
H       3.505559   -0.718499   -0.207357
H       2.572291   -0.846582    1.297458
H       2.644098   -2.908388   -0.660601
H       1.301080   -2.716918    0.459386
H       0.855412   -2.479740   -2.336625
H      -1.102666   -0.923551   -1.878326
H       1.489154    0.127848   -2.730685
H      -0.311002   -0.590638    0.945804
