21

C      -0.234576    1.531180   -0.093728
C       0.145151    0.044831    0.040337
C       0.810689   -0.504668   -1.178779
C       2.050613   -0.968700   -1.372327
C       2.081800   -1.363963   -2.837930
C       1.260190   -0.276182   -3.627075
C       0.714719   -1.367900   -4.576339
C       0.683780   -2.008447   -3.169834
C       0.168338   -0.652299   -2.558040
H       0.655387    2.145607   -0.261115
H      -0.914264    1.693416   -0.936526
H      -0.733164    1.890030    0.812125
H       0.805244   -0.088193    0.905084
H      -0.766663   -0.531216    0.254212
H       2.862021   -1.058223   -0.662505
H       2.986741   -1.782215   -3.281333
H       1.597541    0.733405   -3.878346
H      -0.251925   -1.170998   -5.049106
H       1.421508   -1.793175   -5.294929
H       0.351008   -3.011748   -2.889166
H      -0.869044   -0.350709   -2.716499
