17

O       0.099522    1.425289   -0.183149
C       0.065101    0.023936    0.044975
C      -1.287822   -0.522907    0.126870
C      -2.415502   -0.951044    0.141909
C      -3.751764   -1.425944    0.223280
C      -4.823924   -1.106068    1.286055
C      -5.436163   -2.528316    1.039375
C      -4.350789   -2.765336   -0.017333
O      -4.468631   -1.734369   -0.992490
H      -0.452365    1.606020   -0.951452
H       0.626974   -0.524867   -0.727898
H       0.593081   -0.136775    0.991675
H      -4.406176   -0.994517    2.288120
H      -5.451111   -0.244949    1.047723
H      -5.340141   -3.180819    1.909904
H      -6.459561   -2.569239    0.660336
H      -3.880430   -3.691585   -0.328027
