12

O       0.325080   -0.086797   -0.136054
C       0.534669    1.057802   -0.371050
O       0.384613    2.027263    0.590617
C       0.746047    3.300073    0.264157
C       1.875153    3.843551   -0.307910
C       1.601754    5.231222   -0.318559
N       0.416223    5.520220    0.205794
N      -0.096530    4.318893    0.549085
H       0.857229    1.483347   -1.336118
H       2.760486    3.324961   -0.635070
H       2.232264    6.028522   -0.683503
H      -0.998771    4.256537    0.991062
