23

O      -0.014199    1.416136   -0.140968
C       0.011522   -0.001478    0.000876
C       0.726607   -0.463928    1.304380
C      -0.194472   -1.398903    2.111190
C      -1.444633   -0.614542    2.552034
C      -2.135057    0.008454    1.303876
C      -1.442012   -0.494386    0.023547
C      -1.436081   -2.034298    0.001993
C      -0.626520   -2.576301    1.216925
H       0.891377    1.736332   -0.084090
H       0.513624   -0.444905   -0.873729
H       1.673347   -0.965137    1.073137
H       0.964932    0.423995    1.902320
H       0.339755   -1.775913    2.989857
H      -2.127444   -1.288026    3.082275
H      -1.161373    0.166360    3.266134
H      -3.197731   -0.253821    1.274135
H      -2.075127    1.098974    1.331719
H      -1.955549   -0.102796   -0.860123
H      -2.469351   -2.395838    0.032216
H      -1.009739   -2.395009   -0.940692
H       0.258417   -3.127113    0.878631
H      -1.227583   -3.282399    1.799738
