19

O      -0.081325    1.383683   -0.223906
C       0.012239   -0.003051   -0.055614
C       1.115110   -0.623516   -0.870012
O       2.335502   -0.027888   -0.448368
C       3.447410   -0.398948   -1.220717
C       4.664903    0.339702   -0.691439
O       5.774866    0.191884   -1.126811
C      -0.345938   -0.583405    1.291725
C      -1.290012   -0.716890    0.111420
H       0.790580    1.738272   -0.011521
H       1.147591   -1.714605   -0.727731
H       0.953115   -0.420315   -1.940586
H       3.642223   -1.483299   -1.172934
H       3.314822   -0.143444   -2.286057
H       4.433602    1.039153    0.142407
H       0.179260   -1.466337    1.639653
H      -0.617907    0.125530    2.064751
H      -2.175642   -0.092312    0.107102
H      -1.417067   -1.690784   -0.349077
