21

C       0.209039    1.489917   -0.463778
C       0.398697    0.010683   -0.177349
O       0.569005   -0.663543   -1.415949
C       0.711073   -2.071284   -1.304592
C       0.630062   -2.677595   -2.720091
O       1.775149   -2.513183   -3.511659
C       1.932946   -1.228645   -4.087366
C       1.942637   -2.461683   -0.607538
C       2.944526   -2.779836   -0.025118
H       1.087175    1.898623   -0.971777
H      -0.663624    1.651710   -1.102986
H       0.062609    2.040274    0.470393
H       1.273454   -0.154704    0.467238
H      -0.479144   -0.400424    0.348828
H      -0.149061   -2.475823   -0.739970
H       0.486340   -3.757692   -2.611510
H      -0.261476   -2.250021   -3.205704
H       1.040122   -0.937682   -4.662084
H       2.123651   -0.458715   -3.332916
H       2.785316   -1.295138   -4.768201
H       3.834209   -3.065476    0.479933
