14

N       0.000294    1.310189    0.009548
C       1.147549    2.032443    0.002174
N       2.345472    1.506108   -0.012381
C       2.455720    0.151235   -0.020712
C       1.358644   -0.680311   -0.014414
C       1.049193   -2.070081   -0.018822
C      -0.330748   -2.127498   -0.005601
N      -0.962581   -0.889277    0.007200
C       0.045736   -0.051175    0.001816
H      -0.902255    1.769500    0.020845
H       1.029778    3.110668    0.009097
H       3.472444   -0.232915   -0.032727
H       1.742157   -2.896731   -0.030037
H      -0.940448   -3.022337   -0.004416
