22

C      -0.044499    1.556274   -0.013670
C       0.042772    0.028574    0.016465
C       0.792105   -0.575998   -1.194895
C       1.321545   -1.944889   -0.713634
C       1.543243   -1.761182    0.780509
C       2.262124   -0.508379    1.228241
C       0.749782   -0.557909    1.245048
C       0.018392   -0.529751    2.566228
H       0.954508    2.005678    0.014386
H      -0.542718    1.905269   -0.924666
H      -0.609385    1.945468    0.839923
H      -0.981780   -0.372763    0.024176
H       0.151196   -0.658289   -2.077349
H       1.625843    0.076533   -1.478280
H       0.567402   -2.725363   -0.873529
H       2.223275   -2.255168   -1.253529
H       1.623973   -2.644427    1.406468
H       2.763325   -0.545018    2.190143
H       2.779656    0.099891    0.492935
H      -0.141445    0.496277    2.918725
H      -0.965772   -1.007548    2.484712
H       0.580933   -1.057103    3.343401
