14

O      -0.017656    1.434247    0.058477
C      -0.020004    0.060763    0.011611
C      -0.341352   -0.766643   -1.211488
C      -1.158047   -0.917978    0.047459
O      -0.494184   -1.781085    0.975213
C       0.618762   -0.836422    1.091902
C       1.927638   -1.416066    0.858682
C       3.019912   -1.874640    0.653474
H       0.662584    1.759420   -0.542134
H      -0.831556   -0.195246   -1.994472
H       0.308456   -1.571497   -1.542800
H      -2.232399   -0.810114    0.125159
H       0.573087   -0.345253    2.071201
H       3.983137   -2.287164    0.479307
