27

C      -0.217448    1.633318   -0.103679
C      -0.009676    0.115748   -0.053246
C      -1.339196   -0.649985   -0.037011
C      -1.275100   -2.199030    0.051239
C      -0.477603   -2.770887   -1.134101
C      -0.610558   -2.645575    1.369523
C      -2.727317   -2.694554    0.075752
C      -3.562115   -2.953892   -1.152739
C      -3.156823   -4.100748   -0.256449
H       0.738065    2.167232   -0.116441
H      -0.775508    1.927609   -0.999667
H      -0.783932    1.984798    0.766028
H       0.591568   -0.190901   -0.917227
H       0.581645   -0.134594    0.835683
H      -1.937716   -0.286267    0.810361
H      -1.908313   -0.385535   -0.938728
H       0.572203   -2.470776   -1.073711
H      -0.495150   -3.864990   -1.142031
H      -0.864647   -2.416898   -2.094852
H      -1.137710   -2.231320    2.236425
H      -0.631197   -3.736568    1.458957
H       0.434471   -2.326540    1.429182
H      -3.281965   -2.250136    0.900535
H      -4.597728   -2.631289   -1.149304
H      -3.088419   -2.893867   -2.126307
H      -2.420055   -4.797428   -0.640897
H      -3.912906   -4.565455    0.367292
