18

C       0.043312    1.295312   -0.240276
O      -0.052520    0.037725    0.395078
C      -1.297012   -0.551760    0.259696
C      -1.620339   -1.389214   -1.030135
O      -0.607730   -2.377290   -0.593989
C      -1.363604   -2.047980    0.642379
C      -2.652772   -2.147570   -0.186739
C      -4.107109   -2.069523    0.019911
N      -3.442516   -3.313196   -0.463409
H       1.037155    1.691098   -0.021420
H      -0.074204    1.212529   -1.330527
H      -0.713338    2.000059    0.138487
H      -2.108780    0.094390    0.626839
H      -1.637625   -1.104352   -2.082692
H      -1.073718   -2.544482    1.566870
H      -4.536071   -2.145283    1.015207
H      -4.694001   -1.483722   -0.683867
H      -3.583612   -3.437321   -1.462830
