18

C       0.250414    1.381983   -0.006246
N      -0.016707   -0.039122    0.001167
C       0.219909   -0.932210   -0.998294
C      -0.106817   -2.181042   -0.498590
C      -0.527888   -1.926784    0.826472
N      -0.463753   -0.629335    1.121939
N      -0.124213   -3.409291   -1.182178
C       1.085400   -3.850639   -1.869471
C       0.629285   -4.529160   -0.624330
H       1.309526    1.593875    0.180140
H      -0.033109    1.810227   -0.971148
H      -0.347178    1.837533    0.783341
H       0.577243   -0.623139   -1.967298
H      -0.882906   -2.634846    1.560435
H       0.931223   -4.314691   -2.839135
H       1.966409   -3.216630   -1.793326
H       1.206164   -4.346662    0.279594
H       0.135274   -5.494989   -0.671993
