17

C      -0.042663    1.389635   -0.166383
N       0.329201   -0.018082   -0.008582
C       1.674248   -0.460789   -0.363166
C       2.692267    0.434779   -0.837728
C       3.543186    1.133140   -1.320776
C       1.197271   -0.458094    1.077815
C       1.815906    0.475776    2.085513
N       1.977971   -0.092885    3.320296
O       2.126719    1.629688    1.858492
H       0.757559    2.096095    0.062094
H      -0.375121    1.524753   -1.199638
H      -0.891918    1.588376    0.493769
H       1.691617   -1.435671   -0.849289
H       4.296688    1.768642   -1.715688
H       0.904677   -1.425926    1.484539
H       1.841021   -1.075056    3.481873
H       2.479356    0.439918    4.012344
