21

O      -0.117843    1.493330    0.025861
C       0.028940    0.078556    0.075941
C      -1.357315   -0.534264   -0.039078
C      -2.070860   -0.276890   -1.404125
C      -2.479175   -1.717649   -1.865892
C      -2.809955   -2.368217   -0.500905
C      -1.399106   -2.100933    0.075797
C      -0.541372   -2.669300   -1.046733
C      -1.183417   -2.442758   -2.197535
H       0.759936    1.885732    0.031008
H       0.665942   -0.281633   -0.745891
H       0.499020   -0.234866    1.023411
H      -1.961216   -0.116464    0.774073
H      -2.952778    0.356803   -1.276382
H      -1.416235    0.218126   -2.125519
H      -3.253474   -1.742295   -2.633520
H      -3.608427   -1.855234    0.046023
H      -3.039529   -3.433714   -0.580837
H      -1.190478   -2.476082    1.078981
H       0.450543   -3.084847   -0.918325
H      -0.820884   -2.628413   -3.201305
