18

C      -0.250704    1.324844    0.344223
C      -0.063427   -0.105792    0.150505
C       0.089390   -1.289891   -0.008962
C       0.268598   -2.731029   -0.212681
C       0.885860   -3.461437    1.019232
C      -0.333523   -3.936315    1.820047
C      -1.455265   -4.050195    0.783462
O      -2.543787   -4.557982    0.925971
N      -0.995498   -3.448313   -0.365722
H       0.493016    1.902145   -0.215733
H      -1.242389    1.642793    0.004404
H      -0.158716    1.599155    1.400721
H       0.895984   -2.888623   -1.097556
H       1.462129   -4.319015    0.660875
H       1.556339   -2.805650    1.574794
H      -0.189289   -4.886501    2.336549
H      -0.648730   -3.199542    2.566923
H      -1.652648   -3.210778   -1.093344
