16

C       0.149684    1.493994   -0.078824
C       0.061493    0.004282    0.025961
N      -0.170835   -0.739467   -1.059683
N      -0.156668   -2.009507   -0.621033
C       0.041679   -2.104123    0.725458
C       0.192857   -0.807949    1.175000
C       0.089391   -3.376883    1.476008
N       0.309646   -4.500618    0.697771
O      -0.090553   -3.433240    2.675512
H       1.143863    1.856653    0.204056
H      -0.051249    1.807385   -1.105235
H      -0.574227    1.982122    0.581977
H      -0.447400   -2.743000   -1.246073
H       0.385773   -0.510225    2.192537
H       0.886599   -4.406832   -0.124548
H       0.461590   -5.345434    1.230453
