16

O      -0.321744    1.445314    0.416737
C      -0.080211    0.073445    0.183482
C      -1.365313   -0.686866   -0.137313
O      -2.271597   -0.725761    0.944270
C      -3.273457    0.246044    0.711618
C      -3.364181    0.248196   -0.825119
O      -2.023399   -0.002228   -1.214519
C      -4.278845   -0.788127   -1.343690
N      -5.006099   -1.587953   -1.750733
H      -0.660756    1.803797   -0.411169
H       0.638977   -0.088855   -0.634194
H       0.347562   -0.342288    1.100212
H      -1.146963   -1.723987   -0.425583
H      -4.192803   -0.068649    1.207861
H      -2.964801    1.235916    1.066554
H      -3.667511    1.217348   -1.231122
