20

C      -0.214890    1.511609   -0.058023
C       0.010334   -0.000167    0.011001
C       0.847697   -0.427204   -1.189091
O       1.187904   -1.820156   -1.210857
C       1.334613   -2.512597   -0.062763
O       1.753903   -3.636989   -0.091420
C       0.869822   -1.865200    1.233890
N       0.739099   -0.415514    1.208902
C       0.176923    0.057613    2.465770
H       0.725992    2.048637    0.098758
H      -0.610120    1.786111   -1.040810
H      -0.935533    1.850435    0.689005
H      -0.975333   -0.507360   -0.046157
H       0.306168   -0.246113   -2.121237
H       1.778715    0.151944   -1.203952
H      -0.089590   -2.365881    1.481083
H       1.582018   -2.164339    2.007378
H       0.779500   -0.330445    3.292544
H       0.205429    1.147524    2.517777
H      -0.866897   -0.274075    2.625520
