18

C       0.001255    1.658822    0.244567
C       1.541946    1.526880    0.075701
C       1.391215   -0.009919    0.226193
C      -0.145981    0.123335   -0.018935
N      -0.645468   -0.287405   -1.314780
C      -0.051463   -0.150170   -2.417063
O       1.127005    0.470282   -2.743647
C       1.362033    1.815803   -2.313485
O       2.109886    1.949883   -1.158185
H      -0.246104    1.907861    1.279818
H      -0.551832    2.335642   -0.407572
H       2.149623    2.025468    0.832957
H       1.960384   -0.621649   -0.473917
H       1.601462   -0.337892    1.247532
H      -0.764887   -0.385353    0.723136
H      -0.477428   -0.618949   -3.305777
H       1.966113    2.263767   -3.104701
H       0.392125    2.324436   -2.245173
