22

C       0.690673   -0.321025   -1.381010
C      -0.011684   -0.193925   -0.026087
C      -1.546013   -0.289542   -0.124115
C      -2.070822   -1.727269   -0.379420
C      -2.472803   -2.244705    1.009689
C      -2.745386   -0.979122    1.821106
O      -3.314220   -0.902455    2.891486
N      -2.211207    0.073725    1.123158
C      -2.278236    1.429359    1.616930
H       1.775437   -0.236257   -1.268908
H       0.484168   -1.283243   -1.860954
H       0.365208    0.467375   -2.068947
H       0.350537   -0.965938    0.664882
H       0.254428    0.769522    0.424096
H      -1.880354    0.391915   -0.919394
H      -2.946919   -1.687370   -1.032752
H      -1.323120   -2.351322   -0.873202
H      -3.353371   -2.889432    1.009880
H      -1.666700   -2.800249    1.501873
H      -2.879793    1.413332    2.527551
H      -1.286286    1.831488    1.856107
H      -2.748747    2.091545    0.879473
