23

C      -0.224013    1.432884   -0.253260
C      -0.075000   -0.021120    0.143633
C       1.216060   -0.777818   -0.075289
C       0.737178   -0.502066    1.328913
C       1.505683    0.394360    2.281011
O       2.285583    1.299382    1.525736
C       0.601728    0.989802    3.410124
C       1.058435   -0.166025    4.340887
C       2.251689   -0.425762    3.383182
H       0.695342    1.989153   -0.068439
H      -0.474183    1.515221   -1.317312
H      -1.030320    1.916202    0.311074
H      -0.976349   -0.606929   -0.025930
H       1.178513   -1.794329   -0.452568
H       2.068759   -0.199717   -0.412382
H       0.302488   -1.350954    1.850837
H       2.741338    1.881830    2.141030
H       0.988187    1.957669    3.748691
H      -0.464164    1.095995    3.195395
H       1.296959    0.091475    5.374572
H       0.345599   -0.994345    4.350823
H       2.520707   -1.458328    3.147131
H       3.154125    0.102810    3.709368
