21

C      -0.190843    1.595073   -0.133270
C      -0.043258    0.066475   -0.046406
C       0.741457   -0.400013    1.201326
C       2.209251    0.044702    1.225399
C       2.965078   -0.504715    2.448939
C       4.433360   -0.146968    2.405973
O       5.021731    0.465754    3.258465
C      -1.422176   -0.565295   -0.003157
O      -1.828330   -1.402926   -0.765495
H       0.783058    2.085793   -0.201163
H      -0.768188    1.883420   -1.016942
H      -0.705171    1.991579    0.749709
H       0.450026   -0.316177   -0.947008
H       0.234903   -0.036237    2.105848
H       0.706118   -1.496039    1.247986
H       2.706485   -0.293527    0.306603
H       2.275621    1.138223    1.230379
H       2.541610   -0.130168    3.385518
H       2.890755   -1.602116    2.454425
H       4.960387   -0.496227    1.485977
H      -2.064624   -0.188711    0.830130
