18

C       0.073649    1.564561    0.077612
C       0.065711    0.038454    0.034598
C       0.854213   -0.576888   -1.160005
N       1.464868   -1.825849   -0.683267
C       1.383673   -1.828314    0.580413
C       0.715143   -0.658048    1.252410
O       1.870294   -2.810783    1.395348
C       2.706639   -3.765807    0.860735
O       3.087128   -4.675860    1.526085
H       1.095971    1.949270    0.167987
H      -0.361908    1.986351   -0.834266
H      -0.503596    1.945031    0.926407
H      -0.971827   -0.307989   -0.036616
H       0.216640   -0.781867   -2.025350
H       1.652010    0.094814   -1.506253
H       1.473086   -0.031583    1.741646
H       0.010070   -0.970144    2.027267
H       2.953233   -3.564293   -0.189324
