21

C      -0.016027    1.366338    0.150465
O       0.053932   -0.036569    0.064089
C       0.601464   -0.482461   -1.158391
C       0.610044   -2.008309   -1.113183
C       1.319316   -2.683430   -2.311568
C       0.669367   -2.325092   -3.661035
N       2.726012   -2.256879   -2.342756
C       1.212494   -4.154597   -2.121851
N       1.175347   -5.301087   -1.973794
H       0.979247    1.831554    0.069548
H      -0.657444    1.793830   -0.636885
H      -0.443291    1.613159    1.125339
H      -0.006046   -0.113911   -2.001278
H       1.622304   -0.097019   -1.297288
H       1.108553   -2.317634   -0.187658
H      -0.418195   -2.377579   -1.050947
H       0.805234   -1.260983   -3.863562
H       1.135239   -2.891896   -4.472450
H      -0.397768   -2.559795   -3.654067
H       3.197597   -2.552990   -1.492258
H       3.209388   -2.710242   -3.113204
