21

C       0.226718    1.408633    0.000200
C      -0.123368   -0.096111   -0.001280
C      -1.651099   -0.267209   -0.009612
C       0.557168   -0.838205   -1.192557
C       1.860061   -1.455254   -0.634251
C       1.600347   -1.502295    0.865187
C       0.523291   -0.772433    1.189840
C       2.446640   -2.207413    1.754445
C       3.192447   -2.825434    2.472087
H       1.309056    1.563912   -0.048290
H      -0.230059    1.912147   -0.859462
H      -0.139973    1.898399    0.908800
H      -2.084667    0.162711   -0.919653
H      -1.930401   -1.324756    0.031779
H      -2.111766    0.237436    0.846982
H      -0.103003   -1.639845   -1.539316
H       0.734461   -0.174847   -2.043915
H       2.072597   -2.445590   -1.048721
H       2.742104   -0.836420   -0.843561
H       0.163947   -0.627490    2.203223
H       3.841062   -3.363722    3.117444
