17

O      -0.031426   -0.055745   -0.077030
C       0.045270    1.123160    0.168085
C       1.293019    1.934970    0.072044
C       1.487067    3.130709    1.049833
C       2.103714    3.965085   -0.094502
O       3.458232    3.561755   -0.387903
C       3.000633    2.441684   -1.183707
C       2.620322    1.232303   -0.304119
C       1.537331    2.961799   -1.133940
H      -0.858919    1.704597    0.467842
H       0.515504    3.545665    1.344427
H       2.100006    2.964383    1.939136
H       1.988783    5.050247   -0.095683
H       3.611526    2.297877   -2.076148
H       3.308964    0.972734    0.503371
H       2.407417    0.345728   -0.908385
H       0.864401    3.156546   -1.964399
