19

O      -0.096287    1.483180    0.314994
C      -0.050545    0.138933   -0.068684
C      -0.507088   -0.918099    0.901131
C      -1.365053   -0.553449   -0.297966
C      -2.653034    0.181040   -0.084909
O      -3.168121    0.784964   -1.302612
C      -4.420253    0.086270   -1.187909
C      -3.943670   -0.663521    0.074896
O      -3.705130   -2.045448   -0.065444
H       0.597557    1.627299    0.966497
H       0.761111   -0.111667   -0.751391
H      -0.017588   -1.885298    0.913667
H      -0.845972   -0.566623    1.870801
H      -1.395723   -1.274388   -1.106683
H      -2.528362    0.940849    0.694314
H      -5.266713    0.771345   -1.046405
H      -4.615924   -0.565334   -2.049346
H      -4.517381   -0.448632    0.985281
H      -4.552574   -2.501019   -0.047796
