14

C      -0.025102    1.515768   -0.006639
C      -0.043885    0.018757    0.003400
C      -1.168400   -0.709782   -0.151502
N      -1.109076   -2.087337   -0.131136
C       0.094134   -2.703162    0.046395
N       1.216879   -2.097736    0.202048
C       1.244242   -0.684660    0.193726
O       2.287929   -0.076026    0.337798
H       0.636742    1.882250   -0.798025
H      -1.024381    1.935282   -0.153578
H       0.388531    1.897008    0.932629
H      -2.152326   -0.278265   -0.296072
H      -1.944755   -2.636763   -0.247905
H       0.055023   -3.791955    0.049821
