18

C      -0.100869    1.585464   -0.020647
C       0.010018    0.050754    0.016159
C       0.837463   -0.518774   -1.134507
C       1.864541   -1.270798   -0.684122
C       1.802396   -1.262766    0.765864
C       0.739330   -0.503624    1.214023
C       0.752008   -0.542432    2.629929
C       1.830644   -1.329823    2.992651
N       2.467724   -1.768807    1.846770
H       0.891092    2.044036    0.024390
H      -0.594601    1.922082   -0.938252
H      -0.683977    1.951150    0.830292
H      -1.007139   -0.365532   -0.045421
H       0.604674   -0.318180   -2.172718
H       2.597576   -1.786389   -1.291544
H       0.072959   -0.066114    3.321079
H       2.196417   -1.614067    3.966422
H       3.280022   -2.359616    1.830298
