21

C       1.020849   -0.398292   -0.930845
C       0.016619    0.039451    0.146858
C      -0.055465    1.569859    0.235607
C      -1.396103   -0.540210   -0.078894
O      -1.952984   -0.171220   -1.330856
C      -1.457245   -2.082188    0.107254
O      -0.884035   -2.485469    1.349225
C      -2.826030   -2.579094   -0.037015
C      -3.957530   -2.982430   -0.082064
H       2.010832    0.014317   -0.714530
H       1.129971   -1.486037   -0.985997
H       0.735609   -0.028798   -1.923700
H       0.358907   -0.357548    1.108709
H       0.937737    2.001346    0.395342
H      -0.467766    1.990185   -0.687003
H      -0.697673    1.890067    1.063002
H      -2.071262   -0.100096    0.665867
H      -1.403424   -0.547198   -2.027078
H      -0.826974   -2.548252   -0.661482
H      -1.553633   -2.356887    2.030161
H      -4.954969   -3.341921   -0.144448
