19

C      -0.298173    1.574004    0.009064
C      -0.028053    0.057234    0.018637
C       0.755694   -0.432442   -1.154025
C       2.105785   -0.682220   -1.342574
N       3.139737   -0.586278   -0.416915
C       4.496949   -0.797730   -0.906852
N       2.304673   -1.125675   -2.614787
N       1.153701   -1.171198   -3.238384
N       0.228592   -0.745699   -2.371054
H       0.637660    2.140935   -0.011184
H      -0.878046    1.866662   -0.871901
H      -0.859606    1.874154    0.899184
H       0.523594   -0.212067    0.926724
H      -0.982455   -0.481218    0.077441
H       3.061833    0.230221    0.172273
H       4.575880   -1.800714   -1.331554
H       4.799818   -0.084897   -1.687194
H       5.186735   -0.719708   -0.062747
H      -0.735735   -0.711351   -2.661599
