20

C      -0.105915    1.552857    0.151717
C      -0.086724    0.044923    0.206128
N       1.162654   -0.619270   -0.226450
C       0.743229   -0.712343    1.172006
C       1.631073   -0.228415    2.334334
C       1.205122   -1.484876    3.129391
O       0.004664   -1.283932    3.905716
C      -0.823010   -1.869818    2.874251
C       0.374218   -2.004872    1.917655
H       0.862198    1.960633    0.453822
H      -0.315954    1.903677   -0.864374
H      -0.876554    1.958143    0.816478
H      -1.020689   -0.434765   -0.088943
H       0.952663   -1.486527   -0.716227
H       2.691393   -0.217297    2.065302
H       1.363086    0.718041    2.810144
H       1.964888   -2.052123    3.672156
H      -1.248494   -2.826330    3.204878
H      -1.635555   -1.204123    2.558637
H       0.534577   -2.955358    1.407163
