19

C      -0.409123    1.569970    0.163446
C       0.015717    0.116037    0.014066
C       0.596926   -0.491818   -1.300899
C       1.679218    0.260569   -2.115148
C       2.693336    0.991785   -1.271884
C       2.794138   -0.499494   -1.384743
C       1.732510   -1.210608   -0.505739
C       1.261008   -0.438744    0.754151
O       1.689207   -0.295673    1.862527
H       0.332015    2.253737   -0.257593
H      -1.359599    1.754954   -0.346974
H      -0.539372    1.819331    1.221360
H      -0.811008   -0.538112    0.331569
H      -0.089037   -1.069772   -1.918518
H       1.590391    0.471700   -3.173998
H       3.430672    1.540374   -1.850046
H       2.443448    1.471701   -0.331058
H       3.671146   -0.990635   -1.787014
H       1.806612   -2.295366   -0.434177
