21

C       0.081290    1.505093    0.017111
C      -0.023851   -0.026251    0.001924
C      -1.489220   -0.475436   -0.083088
C       0.828538   -0.646339   -1.102488
C       2.262569   -0.838023   -0.651332
C       1.321799   -2.024966   -0.711539
C       1.234318   -2.034450    0.837143
C       2.175618   -0.847928    0.897378
C       0.699989   -0.660169    1.187253
H       1.125944    1.824921    0.077663
H      -0.354760    1.939388   -0.889567
H      -0.453740    1.928710    0.874498
H      -1.966733   -0.093478   -0.992434
H      -1.563793   -1.567031   -0.093878
H      -2.065782   -0.104148    0.771628
H       0.627065   -0.433782   -2.146945
H       3.133526   -0.615262   -1.251886
H       1.334873   -2.884665   -1.366975
H       1.173978   -2.902107    1.479312
H       2.973732   -0.633585    1.594457
H       0.382749   -0.460055    2.205081
