18

O       0.504999    0.316273    0.942947
C      -0.045960    0.249471   -0.357396
C      -1.416833   -0.414173   -0.327382
C      -2.170444   -1.007414   -1.561718
C      -1.159263   -2.178443   -1.619584
C      -1.570801   -1.955153   -0.124983
N      -3.000036   -1.898607   -0.637952
C      -1.132806   -2.786075    1.030148
O      -0.204259   -2.482216    1.745655
H       0.497828   -0.581961    1.307552
H      -0.150484    1.284029   -0.704594
H       0.635117   -0.252798   -1.061120
H      -2.073349    0.152616    0.343794
H      -2.632357   -0.478006   -2.395536
H      -1.541115   -3.098434   -2.060999
H      -0.128267   -1.965249   -1.893228
H      -3.547269   -1.299469   -0.009497
H      -1.696739   -3.728808    1.187723
