19

C      -0.024005    1.524651    0.094455
C       0.022336    0.010829    0.048883
C       0.877088   -0.672710   -0.944681
O       1.297605   -0.566230    0.410291
C      -1.142552   -0.669318    0.562946
C      -2.135230   -1.197154    1.000642
C      -3.307420   -1.833021    1.524591
C      -4.216799   -2.641862    0.610109
C      -3.372436   -3.349920    1.625596
H       0.905669    1.941570   -0.300699
H      -0.865169    1.901245   -0.495257
H      -0.150882    1.869057    1.124925
H       0.611921   -1.674485   -1.278350
H       1.435257   -0.071819   -1.662977
H      -3.806430   -1.287473    2.320315
H      -5.284290   -2.565583    0.783058
H      -3.929086   -2.711866   -0.431965
H      -2.508104   -3.902058    1.277030
H      -3.853149   -3.765265    2.503977
