18

C       0.016649    1.482732   -0.133566
C      -0.010933   -0.033976    0.015610
N       0.743327   -0.438282    1.203425
C       0.868111   -1.797275    1.461097
C       1.491071   -2.445455    2.492783
C       2.215917   -1.977458    3.700249
O       1.367080   -3.763892    2.267691
N       0.673655   -3.921066    1.052477
N       0.388395   -2.767547    0.613184
H       1.044330    1.849639   -0.208988
H      -0.528796    1.786753   -1.031123
H      -0.458433    1.975702    0.723160
H      -1.049897   -0.396808    0.045684
H       0.455368   -0.511197   -0.851381
H       0.475537    0.091277    2.022718
H       1.608635   -2.072895    4.608154
H       3.130927   -2.557399    3.852393
H       2.489749   -0.925764    3.580493
