20

C       0.055348    1.625582    0.460727
N       0.114989    0.186384    0.313786
C      -1.140858   -0.587953    0.263500
C      -0.435797   -1.721466    1.052025
O       0.059209   -2.790853    0.283405
C       0.604085   -0.624389    1.444479
C       2.071751   -0.965944    1.439837
C       2.898283   -0.875651    0.230654
O       2.966659    0.134631    1.243380
H       1.065477    2.011518    0.617607
H      -0.352970    2.077081   -0.449711
H      -0.576994    1.940815    1.312455
H      -1.961756   -0.128717    0.838926
H      -1.502586   -0.833463   -0.741499
H      -0.996573   -2.170243    1.872085
H       0.544945   -2.417327   -0.460431
H       0.342063   -0.182738    2.422920
H       2.381058   -1.661010    2.222185
H       3.784660   -1.501333    0.137481
H       2.435248   -0.554070   -0.699395
