19

C      -0.461496    1.017335    0.641508
C       1.017789    0.877204    0.337785
C       0.074745   -0.225952   -0.013911
O       0.195265   -1.399582    0.744733
C      -0.989376   -2.116639    0.867034
C      -1.202719   -2.984682    2.071237
C      -0.740905   -2.224185    3.312217
O      -1.563160   -1.072388    2.975794
C      -2.077613   -1.751537    1.834282
H      -0.766044    0.913119    1.676028
H      -1.053271    1.703448    0.045036
H       1.450264    1.462722   -0.465672
H       1.679728    0.694304    1.176444
H      -0.154602   -0.403687   -1.064717
H      -1.361983   -2.554043   -0.062295
H      -1.412477   -4.044731    2.021568
H      -1.085644   -2.671554    4.249920
H       0.321544   -1.971241    3.374834
H      -3.126032   -1.612827    1.592844
