17

C       0.014488    1.567188    0.117512
O       1.466365    1.553555    0.075635
C       1.497677    0.123402    0.023248
C      -0.054241    0.027143    0.003398
C       0.009936   -0.688154   -1.390944
C       0.003906    0.062208   -2.751021
O       0.636309    1.329719   -2.596427
C       1.482197    0.189770   -2.724809
C       1.565966   -0.577292   -1.380830
H      -0.336760    1.938617    1.088454
H      -0.419598    2.160955   -0.687227
H       2.139450   -0.311532    0.796143
H      -0.629632   -0.496147    0.766627
H      -0.454994   -1.673705   -1.429953
H      -0.690042   -0.042223   -3.577846
H       2.209341    0.214289   -3.528503
H       2.172471   -1.482910   -1.432484
