15

C      -0.041810    1.462278    0.142896
C       1.274998    0.739969    0.019461
O       2.005693    0.431428    1.207348
C       1.213602   -0.402012    1.927384
C       1.180560   -1.013846    3.158330
C      -0.057156   -1.713442    3.114221
N      -0.737705   -1.537106    1.980119
N       0.087064   -0.737259    1.262333
C      -0.020729   -0.049966    0.016345
H      -0.325243    1.885100    1.100021
H      -0.352055    2.026912   -0.729534
H       1.924152    0.872219   -0.835095
H       1.908887   -0.979046    3.948999
H      -0.472994   -2.348703    3.883199
H      -0.431430   -0.588195   -0.827934
