15

C       0.047199    1.477099    0.021767
C       0.025407    0.022434   -0.004314
C      -0.015079   -1.185224   -0.029819
C      -0.010669   -2.595257   -0.050489
C       1.114143   -3.391679    0.136536
O       2.398024   -3.078885    0.368483
N       0.720582   -4.674684    0.047494
N      -0.617518   -4.795933   -0.191159
C      -1.050806   -3.548449   -0.248969
H       0.703456    1.886843   -0.754783
H      -0.956256    1.882292   -0.149675
H       0.394874    1.860173    0.988190
H       2.457210   -2.114434    0.393727
H       1.294129   -5.495960    0.136389
H      -2.095836   -3.345971   -0.430786
