19

C       0.022029    1.260877    0.074010
O      -0.066908   -0.151417    0.012805
C      -1.346708   -0.643790    0.016554
C      -2.491707   -0.423111   -1.038373
C      -3.070478   -1.416794    0.005845
C      -1.690337   -2.161466   -0.001622
O      -1.304777   -2.983752   -1.062678
C      -2.459387   -0.479896    1.095325
O      -2.149837   -0.973756    2.371193
H       1.084236    1.512911    0.058975
H      -0.469752    1.735559   -0.786913
H      -0.425496    1.653905    0.996840
H      -2.948767    0.569314   -1.077008
H      -2.329625   -0.801026   -2.049643
H      -4.065726   -1.855480    0.003626
H      -1.452692   -2.700656    0.912784
H      -1.325750   -2.484797   -1.885039
H      -2.920032    0.515301    1.140951
H      -2.965064   -1.034651    2.878676
