19

O      -0.047207    1.527785    0.132167
C      -0.075795    0.131490    0.376000
C      -1.397916   -0.509023   -0.028653
C      -1.632312   -0.647225   -1.574554
C      -1.705789   -2.177134   -1.383084
O      -1.881591   -3.107524   -2.119259
C      -1.481655   -2.046049    0.093303
C      -0.677200   -3.014341    0.939976
C      -2.152909   -2.907539    1.141252
H      -0.153292    1.663846   -0.815127
H       0.757074   -0.385440   -0.129070
H       0.082817    0.019092    1.454267
H      -2.216667    0.012871    0.474688
H      -2.550120   -0.201533   -1.966734
H      -0.794896   -0.332091   -2.207845
H      -0.286613   -3.887993    0.429134
H      -0.021582   -2.590548    1.692834
H      -2.517797   -2.401827    2.029122
H      -2.784513   -3.708977    0.772754
