17

C       0.099253    1.603942    0.004480
C       0.081520    0.073847    0.002199
C       0.791725   -0.625350   -1.146596
C       2.308014   -0.536695   -1.204447
C       1.638468   -1.689810   -0.515825
O       1.535385   -1.594181    0.893764
C       0.746178   -0.526907    1.239366
N       0.593042   -0.107172    2.419203
H       1.121801    1.985331   -0.072773
H      -0.476618    1.999858   -0.837244
H      -0.330848    1.977105    0.936637
H      -0.964149   -0.261418    0.011934
H       0.248259   -0.809665   -2.065041
H       2.776737   -0.724743   -2.164070
H       2.821260    0.189174   -0.581523
H       1.722441   -2.713761   -0.855986
H       1.140700   -0.664045    3.076810
