19

O      -0.171444    1.075928    1.417668
C      -0.061936    0.164550    0.332502
C       0.921728   -0.994969    0.622313
C       0.094668   -2.089145    1.282002
C      -0.841887   -1.692002    2.399497
C      -1.361986   -1.812973    0.990688
C      -1.437987   -0.542650    0.136307
C      -2.600011    0.302578    0.377376
C      -3.584938    0.968263    0.553027
H       0.695649    1.468884    1.558600
H       0.215093    0.709471   -0.580030
H       1.342431   -1.366811   -0.320118
H       1.762514   -0.645594    1.234127
H       0.483001   -3.101644    1.266371
H      -1.134668   -2.474111    3.091897
H      -0.748757   -0.704717    2.833855
H      -2.059642   -2.607891    0.754082
H      -1.468709   -0.865951   -0.913852
H      -4.445174    1.566663    0.722459
