24

C       0.175203    1.547594   -0.040750
C      -0.043565    0.033511    0.050415
C      -1.511142   -0.471815   -0.003238
C      -2.262386   -0.044626    1.271350
C      -2.233140    0.088540   -1.242694
C      -1.439961   -2.030738   -0.068589
C      -2.774696   -2.769445    0.061907
O      -0.749066   -2.477007   -1.237506
H       1.240908    1.778487    0.056811
H      -0.156225    1.953800   -1.001294
H      -0.346922    2.095619    0.750524
H       0.505989   -0.458037   -0.758327
H       0.402245   -0.331208    0.985963
H      -2.196955    1.037198    1.420538
H      -3.325599   -0.298181    1.223705
H      -1.840388   -0.526642    2.161176
H      -1.676200   -0.126088   -2.160939
H      -3.241073   -0.326669   -1.346698
H      -2.343487    1.174344   -1.175569
H      -0.794752   -2.351862    0.759736
H      -3.480344   -2.478394   -0.725175
H      -2.596142   -3.844376   -0.030189
H      -3.255450   -2.585839    1.025907
H      -1.352737   -2.395159   -1.983176
