14

N       0.041329    1.342781   -0.126127
C       0.010305   -0.029558   -0.066397
N      -1.185812   -0.614420    0.022113
C      -1.191951   -1.953226    0.018223
C      -0.040570   -2.715102   -0.066780
O      -0.073653   -4.078430   -0.067859
C       1.150501   -1.981696   -0.141851
O       2.306407   -2.679474   -0.214034
N       1.195756   -0.664787   -0.141360
H       0.916729    1.774866    0.119802
H      -0.792187    1.802676    0.202592
H      -2.157371   -2.448033    0.089373
H       0.834923   -4.395312   -0.130527
H       3.021917   -2.030966   -0.264628
