20

C      -0.021557    1.321599    0.059129
O      -0.060572   -0.085832   -0.073010
C       0.642414   -0.575278   -1.161838
C       2.190000   -0.450484   -1.324563
C       1.982630   -1.688744   -2.196792
C       0.791839   -2.149590   -1.318789
C       0.096785   -2.547513   -2.613228
N       0.873635   -1.422961   -3.276248
C       0.211004   -0.255807   -2.614586
H       1.008633    1.691278    0.164405
H      -0.487687    1.829313   -0.797422
H      -0.580341    1.573026    0.963189
H       2.613506    0.461680   -1.754548
H       2.722804   -0.729169   -0.410640
H       2.780184   -2.330230   -2.564014
H       0.874725   -2.738312   -0.405257
H       0.440551   -3.513039   -2.995502
H      -0.990851   -2.477253   -2.714045
H      -0.868917   -0.278052   -2.780659
H       0.610842    0.688252   -2.993752
