20

C       0.143092    1.399084    0.156065
N       0.379671   -0.035244    0.102268
C       0.498614   -0.600235   -1.015533
C       0.761294   -2.074857   -1.242062
C       0.305770   -2.283472   -2.694694
C       0.558196   -0.909003   -3.288677
C       1.623620   -0.609217   -4.303991
C       0.148442   -0.455632   -4.647089
O       0.401095    0.033452   -2.233198
H       1.084873    1.922576    0.364927
H      -0.279397    1.816525   -0.765450
H      -0.533730    1.616077    0.988416
H       1.835506   -2.265526   -1.135840
H       0.239921   -2.685714   -0.505377
H       0.848617   -3.072349   -3.218524
H      -0.763266   -2.521025   -2.731657
H       2.195466    0.300900   -4.163719
H       2.174932   -1.436820   -4.738058
H      -0.310790   -1.179111   -5.312738
H      -0.239018    0.553050   -4.734399
