21

C       0.339255    0.911325   -0.435536
O      -0.369858    0.060347    0.447614
C       0.449130   -0.577444    1.370056
C       0.164813   -2.003120    1.764937
C      -0.109921   -2.473298    3.163823
C      -0.211158   -2.753069    0.487621
O       0.997501   -2.320125   -0.190598
C       1.443910   -1.646058    0.989982
C       2.907260   -1.675075    1.291155
H       1.063382    0.345059   -1.034261
H      -0.398704    1.367869   -1.099579
H       0.867918    1.709682    0.106994
H       0.779196    0.054014    2.200458
H      -1.173900   -2.376173    3.411978
H       0.168334   -3.525014    3.295182
H       0.450925   -1.885764    3.897563
H      -0.209738   -3.842350    0.612125
H      -1.116919   -2.429672   -0.033809
H       3.473142   -1.178401    0.494439
H       3.117947   -1.153787    2.229492
H       3.273467   -2.703478    1.373609
