15

N       0.011263    1.428293   -0.109400
C      -0.020507    0.039026   -0.056048
C      -1.211715   -0.688761   -0.070863
C      -1.191899   -2.083467   -0.075872
O      -2.402477   -2.716223   -0.090702
C       0.016945   -2.778019   -0.065002
C       1.212796   -2.058373   -0.045175
C       1.182237   -0.680806   -0.040490
F       2.331865    0.028658   -0.007850
H       0.880140    1.831282    0.208991
H      -0.796287    1.890254    0.281099
H      -2.168099   -0.177896   -0.085044
H      -2.255591   -3.667303   -0.095185
H       0.031094   -3.863229   -0.068942
H       2.172099   -2.562433   -0.029384
