19

N      -0.182854   -1.125173    0.001368
C      -0.100065    0.027219   -0.007907
C       0.004074    1.485588   -0.019456
C       1.451084    1.988419    0.000136
C       1.685744    3.510961    0.196885
C       2.726505    3.113948    1.273219
C       2.272467    3.162833    2.744201
C       1.715314    1.729864    2.526577
N       2.338348    1.647192    1.161178
H      -0.478553    1.862959   -0.928926
H      -0.571009    1.885482    0.822340
H       1.944292    1.619208   -0.905391
H       2.060451    4.053896   -0.673402
H       0.823480    4.052417    0.600449
H       3.765431    3.371251    1.050776
H       3.098137    3.208473    3.457260
H       1.548678    3.941982    2.997468
H       2.117784    0.962235    3.192324
H       0.624362    1.647273    2.550279
