23

C       0.048303    1.361605    0.234554
O      -0.024628   -0.039357    0.321958
C      -1.236887   -0.559897   -0.191113
C      -1.183361   -2.069767   -0.115181
C      -0.050239   -2.676693   -0.923788
C      -1.562392   -2.729276    1.190775
C      -2.466418   -2.871607   -0.008964
C      -3.852709   -2.280004   -0.023688
O      -4.728389   -3.234383    0.566317
H       1.012753    1.666971    0.648070
H      -0.018314    1.712783   -0.808061
H      -0.754415    1.851565    0.809536
H      -2.086181   -0.157600    0.382772
H      -1.368848   -0.233661   -1.238801
H       0.911960   -2.274229   -0.595718
H      -0.025201   -3.764747   -0.812395
H      -0.162893   -2.451912   -1.991605
H      -0.993388   -3.591470    1.521252
H      -1.902518   -2.086792    1.996951
H      -2.434303   -3.834942   -0.512267
H      -3.878689   -1.331373    0.532935
H      -4.157359   -2.059718   -1.060205
H      -5.626476   -2.897333    0.494942
