17

O      -1.040447    1.216680    0.005847
C       0.096767    1.002863   -0.339357
C       1.247837    1.970116   -0.242326
C       1.116560    3.442233   -0.811004
C      -0.068970    4.032316   -0.015698
C       0.264898    3.490975    1.418634
C       1.565857    2.713794    1.119147
C       2.269980    3.711400    0.176917
O       3.303684    4.306462    0.160872
H       0.372563    0.016332   -0.775574
H       2.148747    1.489862   -0.633275
H       1.195135    3.649162   -1.876085
H      -0.070486    5.124100   -0.068386
H      -1.029070    3.661977   -0.373385
H       0.444290    4.289369    2.143310
H      -0.523470    2.842178    1.798667
H       2.082060    2.211168    1.934188
