11

O      -0.022759   -0.007945   -0.000637
C       0.005723    1.193581    0.008435
C       1.261707    1.987473    0.001874
N       1.346373    3.284044    0.011216
C       2.711582    3.479596   -0.001535
N       3.412586    2.359755   -0.016570
O       2.449979    1.369136   -0.014887
C       3.325889    4.755054    0.002783
C       3.840368    5.840274    0.006549
H      -0.896466    1.833170    0.022489
H       4.296585    6.800252    0.009851
