14

N      -0.207215    1.475084    0.079510
C      -0.007284    0.087517   -0.019015
C      -0.957144   -1.097611    0.030475
O      -0.331064   -1.784411   -1.042022
C       0.786998   -0.839497   -1.002256
C       1.816044   -1.548832   -0.127417
O       2.886414   -2.004034   -0.394004
O       1.240832   -1.650296    1.118725
C       0.064597   -0.867880    1.138696
H       0.614420    1.968698    0.411350
H      -0.511976    1.890800   -0.793418
H      -2.025280   -1.211724    0.168602
H       1.118247   -0.523782   -1.988840
H      -0.249826   -0.575113    2.131070
