10

C      -0.012992    1.389275    0.010507
O      -0.006506   -0.024047   -0.011073
C       0.658279   -0.565053    1.100643
C       0.632189   -2.028653    1.016776
N       0.629651   -3.182416    0.981071
H       1.008023    1.799809   -0.008446
H      -0.546194    1.716625   -0.883497
H      -0.529513    1.778954    0.900861
H       1.709962   -0.235677    1.146667
H       0.182832   -0.260039    2.048046
