20

C       0.058333    1.404311    0.212196
C      -0.049383   -0.101796   -0.066415
C      -1.503690   -0.551812   -0.133089
C       0.780957   -0.506984   -1.308239
C       2.141059   -0.743150   -0.708194
C       1.960927   -0.946872    0.778867
O       0.565638   -0.843336    1.009397
N       3.222110   -0.725897   -1.374488
O       4.324053   -0.977479   -0.531404
H       1.102897    1.731032    0.235634
H      -0.455052    1.982449   -0.562906
H      -0.395514    1.639040    1.178957
H      -2.024952   -0.057881   -0.958927
H      -1.560559   -1.633948   -0.278909
H      -2.022368   -0.303886    0.797540
H       0.388975   -1.440396   -1.729991
H       0.792071    0.244817   -2.099575
H       2.308736   -1.932389    1.108255
H       2.536544   -0.193751    1.338185
H       5.065753   -0.924562   -1.143085
