22

C      -0.047484    1.605626    0.107188
C      -0.004736    0.078413    0.006081
C      -1.400089   -0.547898   -0.080186
O      -2.086221   -0.147299   -1.266074
C      -1.417447   -2.096126    0.094186
C      -2.866003   -2.597502    0.093222
C      -0.596416   -2.812177   -0.980448
O      -0.784805   -2.425799    1.337624
H       0.960218    2.031873    0.099780
H      -0.608305    2.036099   -0.727511
H      -0.537467    1.925442    1.033656
H       0.572769   -0.214403   -0.882443
H       0.514929   -0.354076    0.866188
H      -2.012244   -0.137951    0.737373
H      -1.491134   -0.294517   -2.009063
H      -3.367928   -2.338522   -0.841327
H      -2.892593   -3.682116    0.231485
H      -3.434102   -2.133224    0.909460
H       0.459871   -2.540629   -0.913839
H      -0.673128   -3.894543   -0.847531
H      -0.963724   -2.568552   -1.982078
H      -1.365819   -2.133348    2.048373
