20

C      -0.072914    1.552972   -0.125880
C       0.006528    0.047304    0.002804
C       1.331337   -0.681915   -0.232404
C       0.732193   -0.599214    1.129050
C       1.226567   -0.159641    2.487772
C      -0.059991   -0.781310    3.119298
C       0.711580   -1.654679    4.112222
C       1.532399   -1.655237    2.819811
N       0.244405   -1.765603    1.948145
H       0.833821    2.030546    0.260804
H      -0.185286    1.857061   -1.172425
H      -0.924111    1.958455    0.432638
H      -0.872680   -0.491829   -0.343617
H       1.300617   -1.637288   -0.746362
H       2.208851   -0.079179   -0.449839
H       1.777031    0.732519    2.803207
H      -1.045247   -0.320635    3.203895
H       1.150493   -1.152072    4.977666
H       0.242816   -2.603371    4.386407
H       2.424670   -2.222470    2.551435
