17

C      -0.010724    1.488830    0.083243
C      -0.065244    0.003124   -0.014014
C      -0.042572   -0.817817   -1.068613
C       0.027793   -2.239246   -0.509740
C       1.465605   -2.460927    0.032706
C       1.444721   -1.446106    1.195914
O       2.340981   -1.113964    1.921497
C      -0.024496   -0.939250    1.196121
O      -0.704899   -2.103096    0.724209
H       0.880143    1.809846    0.636947
H       0.015913    1.955610   -0.904729
H      -0.877822    1.881962    0.627812
H       0.010134   -0.555899   -2.116974
H      -0.390520   -3.043246   -1.113321
H       1.590190   -3.470651    0.435419
H       2.271686   -2.259172   -0.674484
H      -0.409958   -0.587334    2.150811
