17

N       0.074119   -1.142665   -0.063520
C       0.038359    0.013354   -0.048528
C      -0.059393    1.441823   -0.018198
C      -1.289457    2.241218    0.449643
C      -0.773230    3.442616   -0.405319
C       0.100139    4.359128    0.455892
C       1.200051    3.381567    0.947995
N       1.190956    2.230394    0.010519
C       0.253783    2.477060   -1.065648
H      -2.203218    1.805745    0.041143
H      -1.411841    2.396852    1.526050
H      -1.508830    3.938439   -1.035921
H       0.530180    5.167620   -0.144639
H      -0.458471    4.811929    1.280160
H       2.197181    3.827223    0.920452
H       1.025844    3.024703    1.966507
H       0.542308    2.363536   -2.103218
