19

C       0.027556    1.609605    0.029202
C       0.005652    0.078734    0.017915
C       0.665155   -0.501786   -1.235003
C       0.719175   -2.057267   -1.251005
O       1.392306   -2.551819   -0.085384
C      -0.638385   -2.622502   -1.229079
C      -1.758315   -3.054401   -1.230709
C       1.420847   -2.504675   -2.467631
C       2.048350   -2.830598   -3.439172
H       1.052921    1.995436    0.000900
H      -0.503763    2.023197   -0.835294
H      -0.449831    2.003082    0.931854
H       0.519152   -0.313149    0.901754
H      -1.028331   -0.278639    0.077663
H       0.143272   -0.168422   -2.139029
H       1.700256   -0.146702   -1.320123
H       2.333546   -2.388821   -0.217756
H      -2.743603   -3.451306   -1.229385
H       2.586213   -3.137499   -4.302335
