19

C      -0.226617    1.552323    0.151501
C      -0.024093    0.052982    0.020607
C       1.212700   -0.452991   -0.776139
O       1.691466   -1.227581    0.341919
C       0.665629   -0.699006    1.178971
C       0.942700   -0.236020    2.570964
C       0.098947   -1.479096    2.318294
C      -1.284285   -0.674263   -0.399630
O      -2.365389   -0.160197   -0.528036
H       0.691654    2.039373    0.489789
H      -0.521431    1.986702   -0.808244
H      -1.025903    1.776265    0.863374
H       1.009047   -1.082962   -1.649812
H       1.909189    0.345979   -1.056692
H       1.953328   -0.383837    2.936331
H       0.450644    0.659930    2.934961
H      -0.968097   -1.427710    2.510735
H       0.551804   -2.443305    2.522862
H      -1.138208   -1.764254   -0.577357
