19

C      -0.031717    1.488848    0.020895
C       0.038936   -0.013367    0.011613
C       0.679085   -0.942337   -1.067280
C       0.077968   -1.903516   -0.004718
C       0.676602   -0.962077    1.077287
C      -1.198401   -0.998391    0.004450
N      -2.030044   -1.025366    1.198431
C      -2.016940   -0.997814   -1.218412
N      -2.729013   -0.986058   -2.131027
H       0.973989    1.922030    0.017955
H      -0.563176    1.863564   -0.860413
H      -0.549091    1.853696    0.914830
H       0.229814   -0.942703   -2.062553
H       1.769296   -0.920098   -1.120495
H       0.075496   -2.993590   -0.020282
H       1.767472   -0.939240    1.126752
H       0.213025   -0.979761    2.060872
H      -2.680517   -0.244621    1.186396
H      -2.598516   -1.867779    1.207514
