14

C      -0.006826    1.551325    0.004939
C       0.062817    0.042985   -0.067174
C       0.655074   -0.750111   -1.223101
C       1.942760   -0.092140   -1.706404
O       2.467708   -0.024871   -0.352757
C       1.325883   -0.738131    0.135346
H       0.962340    1.996129   -0.233025
H      -0.754597    1.953221   -0.686960
H      -0.276810    1.875355    1.015613
H      -0.801198   -0.475895    0.345507
H       0.118170   -1.535137   -1.738426
H       2.563497   -0.753905   -2.320852
H       1.875975    0.894482   -2.180081
H       1.496607   -1.502135    0.885762
