17

O      -0.031766    1.468747    0.014421
C      -0.004626    0.059086    0.044798
C       0.199284   -0.656685    1.385729
C      -0.911516   -0.366026    2.312611
N      -1.137559   -1.383526    1.265500
C      -1.382081   -0.598364    0.024915
C      -2.698606   -0.000623   -0.348136
C      -2.121328   -1.158723   -1.141004
H       0.874853    1.792823    0.014742
H       0.656840   -0.343936   -0.733862
H       1.098233   -1.183939    1.688562
H      -0.850247   -0.790775    3.309733
H      -1.432802    0.584691    2.240753
H      -3.542258   -0.206573    0.302529
H      -2.691415    0.988670   -0.792138
H      -1.735642   -0.965688   -2.137187
H      -2.575779   -2.134464   -1.007852
