15

O       0.073374    1.340456    0.199295
C       0.036434   -0.058548    0.044992
C      -1.394795   -0.566904   -0.112720
C      -1.511636   -2.107456   -0.108049
N      -1.887911   -2.334080    1.271977
C      -2.402184   -1.205567    1.866397
O      -2.963228   -1.107428    2.920154
O      -2.152900   -0.138761    1.037744
H      -0.509459    1.552060    0.938433
H       0.608886   -0.298342   -0.858132
H       0.509369   -0.582554    0.892469
H      -1.856062   -0.108910   -0.990722
H      -2.270164   -2.462889   -0.817198
H      -0.557091   -2.583887   -0.356964
H      -2.195854   -3.228389    1.615400
