23

C      -0.035160    1.550884    0.051591
C      -0.080116    0.028527   -0.119026
C      -1.480419   -0.558408    0.047180
C      -1.514557   -2.087867    0.056384
C      -1.415470   -2.142846    1.565657
C      -1.977508   -0.663243    1.522151
C      -3.403803   -1.260374    1.394548
C      -2.717810   -2.538632    0.905822
C      -3.325794   -3.902705    0.769320
H       0.981046    1.935244   -0.080862
H      -0.677597    2.050126   -0.682423
H      -0.376205    1.853719    1.047288
H       0.300500   -0.234371   -1.115156
H       0.597397   -0.449047    0.600753
H      -2.175984   -0.054150   -0.639572
H      -1.063883   -2.765498   -0.660141
H      -0.752770   -2.676554    2.231919
H      -1.764185    0.127034    2.239985
H      -3.871823   -1.418834    2.371576
H      -4.109486   -0.745214    0.730112
H      -4.061856   -3.933890   -0.043123
H      -2.561994   -4.657157    0.550679
H      -3.835997   -4.205186    1.691258
