16

C      -0.422581    1.356404   -0.530761
O      -0.352684   -0.071352   -0.693519
C       0.880812   -0.583195   -0.827517
O       1.897662    0.052699   -0.813436
C       0.786879   -2.122523   -1.008882
C       2.127767   -2.781390   -0.689352
O      -0.187709   -2.671075   -0.146985
C       0.415670   -2.362903   -2.427909
N       0.107310   -2.544251   -3.526725
H       0.103928    1.659008    0.377025
H       0.028276    1.855366   -1.391108
H      -1.483150    1.593412   -0.458937
H       2.371006   -2.593437    0.358284
H       2.050676   -3.857369   -0.854345
H       2.915330   -2.366106   -1.318282
H      -0.987813   -2.137820   -0.232170
