20

C       1.098372    1.906449   -0.159843
C       0.566096    0.510710    0.085417
C       0.529628   -0.543451   -1.015054
C       1.029759   -0.276497   -2.419578
C       1.479604   -0.695933    0.137584
O       2.848540   -0.553666   -0.158677
C       3.686480   -0.571534    0.967716
C       3.553452    0.606562    1.848356
N       3.459337    1.523862    2.544411
H       2.028464    1.892005   -0.731654
H       0.370230    2.509359   -0.713179
H       1.307303    2.410484    0.787876
H      -0.267902    0.474246    0.782196
H      -0.325463   -1.214080   -0.980039
H       1.949434    0.310139   -2.425189
H       1.240637   -1.218804   -2.936265
H       0.276783    0.262465   -3.004197
H       1.286492   -1.473511    0.877134
H       3.517286   -1.470495    1.580691
H       4.714560   -0.610639    0.595298
