16

O       0.453540    0.937020   -0.731405
C       0.079580   -0.150978    0.047284
C      -0.165477   -0.004250    1.570079
C      -1.306882   -1.046477    1.451644
C      -1.374223   -0.775161   -0.092462
C      -2.362211    0.203115   -0.472158
C      -3.159465    1.058770   -0.786421
C      -4.072500    2.010570   -1.136487
N      -4.847695    2.824381   -1.431990
H      -0.207550    1.631862   -0.627202
H       0.808809   -0.939449   -0.157205
H       0.668439   -0.218955    2.240439
H      -0.560536    0.989782    1.802965
H      -0.966773   -2.066451    1.642196
H      -2.220944   -0.862855    2.015522
H      -1.451066   -1.652420   -0.740905
