20

C       0.274679    1.464973   -0.450995
C      -0.021841    0.113630    0.142369
C      -1.225756   -0.467263    0.250702
C      -2.533795    0.134276   -0.185467
C      -1.337103   -1.868496    0.847477
N      -0.582239   -2.929779    0.181807
C       0.599865   -2.811545   -0.241781
O       1.503315   -1.802961   -0.185684
C       1.185942   -0.655803    0.629050
H       0.775739    2.112071    0.281181
H       0.962849    1.369045   -1.301007
H      -0.614881    1.989236   -0.801274
H      -2.442945    1.153464   -0.562761
H      -2.996326   -0.478607   -0.969654
H      -3.243947    0.149268    0.651633
H      -1.076508   -1.848106    1.917078
H      -2.387037   -2.176810    0.816527
H       1.057911   -3.647773   -0.771783
H       2.088388   -0.042689    0.583418
H       1.063642   -0.990633    1.666747
