14

O       0.174323    1.361285   -0.080383
C       0.050333   -0.027586   -0.102630
C      -1.390682   -0.462359   -0.027947
N      -2.329362    0.394378    0.046951
C      -3.684395   -0.031066    0.116765
O      -4.589902    0.765699    0.186935
C      -3.866324   -1.489019    0.095971
C      -2.802204   -2.293342    0.014561
O      -1.529163   -1.812190   -0.050680
H      -0.727902    1.713027   -0.018698
H       0.485404   -0.454824   -1.020448
H       0.587700   -0.492636    0.739615
H      -4.868401   -1.893690    0.146932
H      -2.816269   -3.375462   -0.008627
