17

O       0.422221    1.317577   -0.174514
C       0.186823   -0.058250   -0.098607
C      -0.063314   -0.703020   -1.496399
C      -0.680868   -1.916000   -0.775183
C      -1.230453   -0.666009   -0.032827
C      -1.518469   -0.012914   -1.422250
N      -1.197133   -0.600283    1.432913
C       0.245584   -0.569750    1.383102
N       1.168528   -0.718606    2.226978
H       0.464791    1.677350    0.717894
H       0.588122   -0.712354   -2.372959
H      -1.405693   -2.500437   -1.344548
H       0.008945   -2.553215   -0.215799
H      -1.530680    1.073409   -1.463848
H      -2.291467   -0.470560   -2.044664
H      -1.684962   -1.267390    2.023178
H       0.808023   -0.958832    3.153639
