17

C      -0.077834    1.536240   -0.011086
C      -0.004589    0.017555   -0.016113
C       1.319384   -0.671255   -0.284354
C       0.760058   -0.722124    1.118692
N       1.417114    0.132173    2.082151
C       0.220368   -1.968954    1.601370
C      -0.214575   -2.993064    2.057910
C      -1.187840   -0.629286   -0.527787
N      -2.150879   -1.109944   -0.951574
H       0.804429    1.948033    0.478755
H      -0.133046    1.913689   -1.036467
H      -0.966890    1.880483    0.525148
H       1.314262   -1.585525   -0.863859
H       2.171607   -0.018140   -0.435005
H       0.826562    0.245354    2.901351
H       2.272107   -0.315815    2.400148
H      -0.612354   -3.899605    2.442600
