17

O      -0.125218    1.422168    0.154126
C      -0.059781    0.040022    0.021676
C       0.963899   -0.564227   -0.938263
C       0.215809   -1.747422   -1.596769
O      -1.129876   -1.766780   -1.062524
C      -1.292627   -0.741848   -0.157938
C      -0.539884   -0.804791    1.218605
C       0.115842   -2.020052    1.726298
O       0.819267   -2.776203    1.091414
H       0.621339    1.709043    0.692324
H       1.214782    0.214195   -1.663905
H       1.879511   -0.896067   -0.446114
H       0.140033   -1.635593   -2.683493
H       0.685333   -2.700757   -1.358358
H      -2.287173   -0.311189   -0.134507
H      -1.042577   -0.207800    1.974155
H      -0.094664   -2.223450    2.800308
