16

N      -0.099096   -1.149398    0.057500
C      -0.060994    0.007615    0.020466
C       0.002209    1.425919   -0.013245
C      -0.731604    2.482942    0.804499
C       0.587025    3.169866    1.138085
C       1.272138    2.354474   -0.029201
C       1.122284    3.173896   -1.291550
C      -0.167948    3.222519   -1.635286
C      -0.965980    2.360816   -0.713872
H      -1.560189    2.328033    1.484208
H       0.641189    4.260451    1.075896
H       0.949361    2.831725    2.111454
H       2.245855    1.917408    0.178544
H       1.930609    3.746050   -1.728839
H      -0.610485    3.814407   -2.425677
H      -1.939213    1.977171   -0.995201
