21

C      -0.307592    1.264576   -0.556901
O      -0.059293   -0.075594   -0.210307
C       0.651435   -0.780145   -1.208901
C       0.810473   -2.230661   -0.754651
C      -0.558950   -2.958492   -0.629861
C      -0.693819   -3.761964   -1.905881
O      -0.447075   -2.999564   -3.100015
C       0.605746   -3.828086   -2.584031
C       1.636045   -3.066260   -1.774908
H       0.627042    1.829822   -0.703455
H      -0.902158    1.345696   -1.480634
H      -0.867363    1.718886    0.264718
H       0.116795   -0.740769   -2.169467
H       1.645712   -0.323723   -1.359139
H       1.312612   -2.205327    0.216633
H      -0.565541   -3.647287    0.223253
H      -1.374766   -2.246658   -0.478836
H      -1.450503   -4.536962   -2.002747
H       0.901060   -4.655477   -3.224884
H       2.278531   -2.440006   -2.403812
H       2.287694   -3.784127   -1.263146
