20

C      -0.207559    1.704410    0.006570
C       0.072134    0.200730    0.009739
C      -1.249781   -0.617604    0.016167
C      -2.121008   -0.306762    1.148068
N      -2.794356   -0.048616    2.051565
C       0.938528   -0.271157   -1.194648
C       1.933891   -1.287062   -0.574936
O       1.521352   -1.482216    0.774090
C       0.953780   -0.254398    1.191961
H       0.729381    2.269964    0.002584
H      -0.780267    1.999411   -0.879251
H      -0.781811    2.005410    0.888343
H      -1.807184   -0.436275   -0.909738
H      -1.010089   -1.685902    0.049229
H       0.326732   -0.720397   -1.981901
H       1.466916    0.575100   -1.640529
H       1.932607   -2.262309   -1.068254
H       2.959875   -0.890617   -0.604674
H       1.735567    0.498253    1.389824
H       0.399291   -0.429580    2.117489
