17

C       0.595336    1.441740   -0.632039
C      -0.012509    0.154900   -0.122839
C       0.824108   -1.027283    0.236956
N       0.100189   -0.289892    1.272200
C       0.801953    0.483237    2.290961
C       0.550801   -0.218395    3.646977
O       1.352830   -0.311102    4.529771
C       2.237566    0.725937    2.087054
N       3.363126    0.883188    1.877687
H       1.624644    1.582145   -0.296765
H       0.596996    1.435409   -1.726759
H       0.004761    2.308398   -0.313581
H      -1.006583   -0.046770   -0.519908
H       0.473541   -2.039617    0.057030
H       1.903130   -0.898973    0.182990
H       0.301455    1.459985    2.377130
H      -0.478569   -0.627043    3.702871
