18

O      -0.035974    1.428276    0.106388
C      -0.014466    0.036360    0.013642
C       0.345150   -0.647096   -1.323202
N      -0.776815   -1.635423   -1.170366
C      -0.403415   -2.723117   -0.202664
C      -0.677908   -1.803578    1.006752
O      -1.376313   -2.288881    2.112738
C       0.473064   -0.783537    1.242890
C      -1.322444   -0.810675   -0.006854
H       0.864794    1.739233    0.252186
H       0.136319    0.011285   -2.172302
H       1.342410   -1.087412   -1.440958
H      -1.140611   -3.530089   -0.260843
H       0.602560   -3.139268   -0.333453
H      -0.758283   -2.762189    2.681380
H       1.505860   -1.148166    1.257282
H       0.257674   -0.214979    2.152389
H      -2.347736   -0.447012   -0.018031
