16

O       0.021230    1.424311   -0.032916
C       0.032070    0.026224    0.001314
C       0.299572   -0.764328   -1.307448
N      -0.815612   -1.664886   -0.922667
C      -1.348070   -0.645438    0.025032
C      -1.546875   -1.186859    1.432737
O      -2.536570   -1.624063    1.940291
O      -0.357842   -1.102281    2.096429
C       0.689706   -0.575816    1.269925
H       0.928858    1.746084    0.001611
H       0.094406   -0.128007   -2.177538
H       1.266641   -1.263491   -1.433852
H      -1.450581   -1.930111   -1.665497
H      -2.191648   -0.043870   -0.321240
H       1.384139   -1.387635    1.032996
H       1.211657    0.194351    1.845477
