19

C       0.028679    1.572839    0.181535
C      -0.017260    0.064968   -0.081677
N      -1.362340   -0.483613   -0.024272
C      -2.059983   -0.768726    1.146969
C      -3.288728   -1.194049    0.720788
O      -4.327101   -1.598570    1.487714
N      -3.376633   -1.178504   -0.639596
C      -2.200382   -0.741500   -1.066590
C      -1.835907   -0.562380   -2.503202
H       1.061514    1.932710    0.143619
H      -0.554436    2.118048   -0.566376
H      -0.381888    1.807858    1.167381
H       0.397309   -0.161638   -1.067404
H       0.597934   -0.466902    0.651933
H      -1.621057   -0.656202    2.122511
H      -5.031859   -1.835102    0.872636
H      -1.589612    0.477632   -2.747237
H      -0.978664   -1.180674   -2.795241
H      -2.692137   -0.860672   -3.109390
