16

O      -0.629148    0.610350    0.023496
C      -0.070642    1.677466    0.051191
C       1.437446    1.847541   -0.007965
C       1.857078    2.731817   -1.224950
C       2.075714    4.114223   -0.649794
O       0.980249    4.571539    0.159022
C       2.141389    4.035614    0.813141
C       1.968531    2.598615    1.254406
H      -0.635570    2.630902    0.124028
H       1.859901    0.843356   -0.080636
H       2.792500    2.362632   -1.659720
H       1.106579    2.727452   -2.022651
H       2.581960    4.884596   -1.225634
H       2.700761    4.742410    1.420512
H       1.292508    2.505109    2.111026
H       2.937395    2.189553    1.561511
