14

N       0.068952    1.386830    0.159403
C       0.034236    0.020172    0.031209
C      -1.076824   -0.785892    0.024222
N      -0.615796   -2.077343   -0.002789
H      -1.300729   -2.827450   -0.027474
C       0.709971   -2.115636   -0.021626
N       1.131260   -0.828781    0.008229
C      -2.560273   -0.448647    0.018668
O      -3.287728   -1.453478   -0.017789
O      -2.775561    0.781265    0.046902
H       0.641441    1.875742   -0.518003
H      -0.915240    1.690564    0.131754
H       1.342893   -2.983533   -0.064840
H       2.099157   -0.547289    0.037973
