21

O      -0.362862    1.639520    0.127611
C      -0.254156    0.276326    0.511628
C      -1.419236   -0.470345   -0.105272
C      -1.419059   -0.658840   -1.651309
C      -1.865987   -2.134061   -1.449881
O      -1.285070   -3.151960   -2.226875
C      -1.478585   -2.001469    0.034131
C      -0.471937   -2.894978    0.710137
C      -1.907395   -2.857728    1.182512
H       0.384993    2.117708    0.497410
H       0.693000   -0.163883    0.159376
H      -0.276836    0.169356    1.609513
H      -2.350702   -0.004184    0.234129
H      -2.062330   -0.008867   -2.246586
H      -0.401526   -0.609242   -2.055732
H      -2.946856   -2.254998   -1.576240
H      -0.328469   -3.052849   -2.167136
H      -0.145918   -3.776663    0.166520
H       0.289235   -2.451154    1.343437
H      -2.117730   -2.376254    2.132789
H      -2.535728   -3.716632    0.967050
