17

O       0.583855    1.181118    0.513361
C       0.216948   -0.143834    0.289149
C       1.276673   -0.877180   -0.504012
C       1.997114   -0.205260   -1.591989
O       2.604945   -0.357890   -0.299527
C      -0.484920   -0.960348    1.440319
C      -1.698116   -0.007312    1.349173
C      -1.269189   -0.402397   -0.084219
O      -1.093006   -1.798568    0.382708
H       1.550938    1.173783    0.584192
H       1.202648   -1.959052   -0.509501
H       2.447388   -0.800204   -2.383649
H       1.732621    0.816059   -1.855973
H      -0.056807   -1.472215    2.302711
H      -2.642432   -0.445611    1.672613
H      -1.560411    1.028341    1.657851
H      -1.779481   -0.249963   -1.035897
