15

C       0.035579    1.400663   -0.082590
C       1.535007    1.791716    0.002370
N       2.042517    0.621288    0.685521
C       3.239922    0.152030    1.194638
C       3.056364   -1.184491    1.459609
C       1.722471   -1.561344    1.079793
C       1.156423   -0.411619    0.600408
O      -0.008233   -0.037246    0.004245
H      -0.520851    1.824146    0.762220
H      -0.440435    1.702076   -1.016820
H       1.993098    1.912105   -0.987880
H       1.685174    2.712655    0.572163
H       4.079872    0.806207    1.357418
H       3.791010   -1.838166    1.905478
H       1.263882   -2.532529    1.157675
