17

C      -0.059670    1.515357   -0.072947
C       0.014301    0.002458    0.104551
N      -1.319408   -0.575913    0.069238
C      -1.575409   -1.902273    0.029642
N      -2.876179   -2.270921    0.094126
C      -3.077356   -3.572287    0.026208
C      -2.013060   -4.469631   -0.101383
N      -0.756531   -4.035863   -0.147008
N      -0.517344   -2.737267   -0.076626
H       0.943582    1.947806   -0.043202
H      -0.517385    1.778334   -1.031748
H      -0.646564    1.981563    0.726642
H       0.612764   -0.453365   -0.689737
H       0.515920   -0.248161    1.049413
H      -2.118292    0.013618    0.239681
H      -4.107409   -3.920659    0.075678
H      -2.159856   -5.541836   -0.161181
