13

N       0.040753    1.383627    0.147318
C      -0.010188    0.024457    0.065830
C      -1.187950   -0.676872    0.076366
O      -2.393090   -0.041086    0.122775
C      -1.190038   -2.100391    0.032431
O      -2.171926   -2.808416    0.031324
O       0.085148   -2.688424   -0.018025
C       1.174606   -1.909490   -0.031489
N       1.203723   -0.631349    0.005556
H       0.908875    1.817175   -0.121125
H      -0.808160    1.892284   -0.038456
H      -3.059620   -0.745243    0.105939
H       2.086735   -2.494669   -0.080121
