18

C      -0.013648    1.372466    0.114568
O       0.063538   -0.048207    0.045567
C       0.671464   -0.641326    1.074931
N       1.182530    0.007302    2.109822
N       1.675054   -1.026419    2.861806
C       2.334811   -0.746305    4.115182
C       1.432801   -2.202649    2.242757
C       1.827392   -3.542161    2.769598
N       0.794031   -1.992229    1.100269
H       0.985887    1.818160    0.152724
H      -0.532634    1.688400   -0.791119
H      -0.571173    1.692354    1.001128
H       1.650824   -0.234088    4.797990
H       2.656823   -1.684786    4.568093
H       3.208249   -0.108860    3.950220
H       1.361639   -3.753785    3.738052
H       1.500597   -4.299618    2.056854
H       2.912064   -3.628861    2.894428
