22

C       0.467443    1.729437    0.051968
C      -0.065705    0.299434    0.004885
N       0.476728   -0.399031   -1.156349
C       1.724164   -1.135208   -0.991887
C       0.442707   -1.864095   -1.216724
C      -0.212327   -2.748159   -0.174620
C       0.525583   -3.090049    1.101458
C      -1.683449   -2.858878   -0.211606
O      -0.866738   -3.882737   -0.774047
H       1.555630    1.736120    0.173636
H       0.229128    2.257408   -0.875432
H       0.029568    2.278596    0.891258
H       0.159267   -0.206263    0.958574
H      -1.157400    0.312571   -0.096384
H       2.452902   -1.037951   -1.792749
H       2.157729   -1.183431    0.006161
H       0.232265   -2.239432   -2.216257
H       0.706655   -2.206929    1.721131
H      -0.059160   -3.805709    1.684938
H       1.495217   -3.543679    0.872756
H      -2.225124   -3.132983    0.693441
H      -2.250694   -2.266505   -0.928768
