16

C      -0.038368    1.464213    0.059894
O       0.281857    0.064073    0.068005
C       0.781219   -0.412015   -1.069657
O       0.978391    0.230196   -2.072269
C       1.094500   -1.918450   -0.965049
O       0.861982   -2.549144    0.040656
C       1.696323   -2.520732   -2.183191
C       2.926283   -3.357453   -1.955670
N       1.660405   -3.988352   -2.284162
H       0.857072    2.058748   -0.137401
H      -0.783068    1.680007   -0.710093
H      -0.434257    1.680911    1.051094
H       1.595629   -1.963972   -3.105645
H       3.680832   -3.376759   -2.736314
H       3.296170   -3.423045   -0.936122
H       1.236472   -4.336551   -1.422998
