16

C      -0.074671    1.424698   -0.011071
N      -0.033392   -0.030314    0.032604
N      -0.133252   -0.656621   -1.130246
N      -0.105283   -1.932536   -1.175255
C       0.032686   -2.620139    0.034710
C       0.055486   -4.108596   -0.113099
N       0.135249   -2.076521    1.202971
C       0.107006   -0.689880    1.274688
N       0.193588    0.023604    2.325828
H       0.845238    1.829379    0.416862
H      -0.185797    1.715612   -1.054738
H      -0.911573    1.784790    0.591473
H       0.876639   -4.402935   -0.774760
H       0.169293   -4.585926    0.859524
H      -0.869208   -4.447585   -0.591565
H       0.289533   -0.594894    3.130440
