15

C      -0.061128   -1.224544   -0.028057
C      -0.047715   -0.024101   -0.008813
C      -0.001254    1.429807    0.003608
C       1.449310    1.987304    0.038050
C       1.431557    3.534888   -0.080453
C       2.763741    4.112631   -0.233889
N       3.817654    4.563631   -0.373707
C       2.142580    1.568987    1.259479
N       2.670828    1.258284    2.238410
H      -0.079475   -2.286691   -0.033611
H      -0.492050    1.826570   -0.893521
H      -0.555235    1.819693    0.866035
H       1.996666    1.576349   -0.816498
H       0.829409    3.813396   -0.952081
H       0.949746    3.971100    0.800875
