16

C      -0.020427    1.490686    0.091607
C      -0.046049   -0.014559   -0.113345
C       0.854387   -0.498482   -1.237202
O       0.828301   -1.910005   -1.290603
C       1.383091   -2.467818   -0.119757
C       0.963729   -1.815539    1.196059
O       1.219772   -2.321552    2.253953
O       0.345213   -0.617032    1.147157
H       0.998793    1.839035    0.284295
H      -0.404594    2.002410   -0.796053
H      -0.643233    1.764893    0.946282
H      -1.068499   -0.354093   -0.321607
H       0.485438   -0.132928   -2.199259
H       1.882362   -0.124665   -1.092771
H       1.089584   -3.518772   -0.078750
H       2.485200   -2.430931   -0.144643
