18

C      -0.139628    1.627676   -0.077421
C       1.361509    1.345888    0.024029
C       1.191513    0.168243    1.033455
C       0.002048    0.106999    0.025434
N       1.240581    0.112185   -0.920452
C       1.998169   -0.717971    0.101252
C       3.524743   -0.849393    0.020109
O       3.429903   -2.289176   -0.020160
C       1.987570   -2.250238    0.021698
H      -0.605915    2.140302    0.767480
H      -0.493755    2.015182   -1.036094
H       2.209373    2.026303   -0.067346
H       1.155597    0.208896    2.127287
H      -0.754064   -0.674303   -0.064284
H       3.970615   -0.435710   -0.893667
H       4.090437   -0.497748    0.892762
H       1.586037   -2.780039    0.895351
H       1.533344   -2.656826   -0.891148
