22

C      -0.063723    1.581868   -0.032095
N      -0.081713    0.147095    0.129113
C      -1.334742   -0.538589    0.478676
C      -1.564252   -1.798585   -0.373601
O      -0.662562   -2.563516    0.471109
C      -0.542167   -1.480244    1.410956
C       0.688578   -0.544997    1.216802
C       1.975092   -1.187651    0.718635
C       0.909452    0.299983    2.475095
H       0.957421    1.919984   -0.238411
H      -0.677607    1.857207   -0.897105
H      -0.438899    2.150676    0.838244
H      -2.183879    0.085915    0.769174
H      -2.581364   -2.210536   -0.330501
H      -1.219306   -1.740386   -1.410658
H      -0.803983   -1.773293    2.430967
H       1.755536   -1.877284   -0.098391
H       2.670642   -0.423163    0.354499
H       2.475685   -1.741853    1.520328
H       1.343509   -0.316323    3.269297
H       1.596785    1.130052    2.282778
H      -0.029536    0.720288    2.851545
