21

C      -0.152921    1.461953    0.125966
C       0.004733   -0.053155    0.101350
C       1.059427   -0.574526   -0.936788
C       1.906649   -1.137716    0.206320
C       0.863791   -0.626496    1.238488
C       1.103638   -2.082998    1.034915
C       0.185682   -3.256940    0.691215
C       0.956056   -3.972915    1.821054
O       1.775592   -2.807332    2.070149
H       0.819839    1.955150    0.232848
H      -0.615050    1.822941   -0.799561
H      -0.782390    1.782039    0.963737
H      -0.983729   -0.521983    0.012234
H       0.708260   -1.298063   -1.681324
H       1.546099    0.251403   -1.462196
H       2.988593   -1.146178    0.269287
H       1.020873   -0.174108    2.211685
H      -0.877300   -3.093061    0.879037
H       0.316872   -3.679682   -0.306845
H       0.363885   -4.245613    2.701986
H       1.560870   -4.833501    1.513531
