19

C      -0.310630    1.365702   -0.199028
N       0.000981   -0.042139   -0.034353
C       0.835389   -0.588367   -0.802489
N       1.258910   -1.911718   -0.706477
C       1.868858   -2.298889   -1.951895
C       2.612765   -3.580432   -2.130043
C       1.294621   -3.357827   -2.857909
C       2.374073   -0.957041   -2.457035
O       1.494193    0.000090   -1.854845
H      -0.124767    1.893953    0.744024
H       0.259590    1.865116   -0.991392
H      -1.379044    1.482906   -0.419057
H       0.611279   -2.533347   -0.246533
H       3.530678   -3.568895   -2.709656
H       2.622809   -4.278191   -1.299289
H       0.426997   -3.908658   -2.508825
H       1.318636   -3.194725   -3.930780
H       3.400535   -0.760214   -2.122109
H       2.321009   -0.850978   -3.543241
