18

C      -0.495473    1.621916   -0.227839
C      -0.121918    0.164114   -0.092368
O       1.097485   -0.149987   -0.870143
C       1.771950   -0.563783    0.246583
N       2.956419   -0.946623    0.405223
C       0.587205   -0.372733    1.179948
C       0.775378    0.475348    2.436317
C       1.833521   -0.027729    3.392151
O       0.100009    1.454183    2.650887
H       0.323264    2.274683    0.080200
H      -0.742604    1.833084   -1.272937
H      -1.361166    1.850500    0.397179
H      -0.932277   -0.485097   -0.436241
H       3.475773   -0.937970   -0.473844
H       0.195485   -1.345124    1.500386
H       1.522893   -0.994857    3.806160
H       2.772336   -0.204986    2.857727
H       1.966983    0.687409    4.204523
