16

C       0.779651    1.318871   -0.466755
C      -0.076928    0.052085   -0.388156
N       0.526661   -1.223127   -0.739809
C       1.721491   -1.295649   -1.101007
O       2.247857   -2.521391   -1.408523
C       3.596283   -2.521909   -1.831222
C       3.770362   -2.003072   -3.198929
N       3.908464   -1.585087   -4.266724
H       1.641231    1.272766    0.208243
H       1.148474    1.500681   -1.481816
H       0.177863    2.184207   -0.174060
H      -0.474792   -0.058778    0.628876
H      -0.959770    0.167611   -1.029928
H       2.436403   -0.470736   -1.203491
H       4.237317   -1.944200   -1.151751
H       3.926436   -3.563069   -1.799625
