17

C      -0.051998    1.391721   -0.121090
N      -0.035322   -0.029578    0.116970
C      -1.096323   -1.034829    0.069258
C      -1.546404   -1.446367   -1.363399
C      -0.412167   -2.514785   -1.411026
C       0.027817   -2.121500    0.034971
C       1.007450   -0.932491    0.045883
O       2.198439   -0.774113   -0.035785
H       0.985643    1.731330   -0.167650
H      -0.545671    1.639193   -1.070154
H      -0.564291    1.927725    0.685936
H      -1.849431   -0.948911    0.854945
H      -2.547848   -1.882721   -1.386691
H      -1.500421   -0.648382   -2.108631
H      -0.790216   -3.536625   -1.476607
H       0.356122   -2.383395   -2.175678
H       0.155692   -2.902019    0.781981
