18

C       0.023569    1.567649    0.075629
C       0.018200    0.067141    0.029301
C      -1.253661   -0.788251   -0.101307
C      -0.664934   -1.808157    0.936803
C      -0.532469   -3.211635    0.556616
N      -0.404991   -4.325798    0.273000
C       0.626467   -0.978540    1.002234
C       1.192097   -0.762646   -0.376529
O       1.064761   -1.683573   -1.416546
H       1.017662    1.954339    0.321133
H      -0.265200    1.988550   -0.894835
H      -0.679263    1.948005    0.825316
H      -2.146769   -0.295956    0.287200
H      -1.452041   -1.185586   -1.097217
H      -1.216386   -1.758640    1.878496
H       1.220297   -0.847922    1.899598
H       2.138539   -0.219539   -0.366655
H       1.477701   -2.514671   -1.157054
