21

O       0.832843    0.816747   -0.416216
C       0.222025   -0.245179    0.268357
C      -0.271833   -0.073175    1.726655
C      -1.457935   -1.011458    1.376874
C      -1.205880   -0.727407   -0.136432
C      -2.131774    0.347843   -0.730374
C      -3.217837   -0.510736   -1.379833
O      -2.532837   -1.630795   -1.922384
C      -1.350550   -1.868047   -1.156409
H       0.285518    1.601169   -0.304113
H       0.928697   -1.079518    0.197761
H       0.403592   -0.361850    2.534732
H      -0.610346    0.953342    1.905863
H      -1.247900   -2.053175    1.635317
H      -2.441703   -0.747705    1.773213
H      -2.526728    1.048374    0.011328
H      -1.597814    0.916346   -1.500892
H      -3.961503   -0.829519   -0.630288
H      -3.750401   -0.008982   -2.193481
H      -0.494029   -1.893243   -1.843911
H      -1.415147   -2.846470   -0.660286
