15

O      -0.002323    1.351642   -0.005471
C       0.039780   -0.013872   -0.021070
C      -0.002336   -0.881999   -1.089221
N      -0.038727   -0.453015   -2.423653
C      -0.012590   -1.241306   -3.534548
O       0.071317   -2.451067   -3.548329
C      -0.011344   -2.208049   -0.562700
C       0.016041   -2.095234    0.806758
N       0.048536   -0.760302    1.132406
H       0.895728    1.703215    0.035311
H      -0.139844    0.541489   -2.561432
H      -0.077138   -0.628379   -4.455539
H      -0.028135   -3.111625   -1.145260
H       0.016738   -2.852776    1.572739
H       0.008800   -0.369711    2.057215
