21

C       0.029013    1.468928   -0.050916
C      -0.047331   -0.023005    0.100937
C      -1.163134   -0.742699    0.121041
C      -2.618479   -0.586160   -0.271735
C      -2.515369   -2.042980   -0.847033
C      -1.215909   -2.248337   -0.004357
C       0.103824   -2.750523   -0.570170
O       1.152310   -2.192106    0.216982
C       1.265985   -0.780093    0.137742
H       0.614948    1.752189   -0.935221
H      -0.965400    1.912418   -0.145881
H       0.521921    1.934807    0.812444
H      -3.296381   -0.540030    0.588348
H      -2.882666    0.218725   -0.963332
H      -3.351061   -2.718415   -0.651499
H      -2.305098   -2.033534   -1.920109
H      -1.437526   -2.750771    0.944756
H       0.230806   -3.835215   -0.505774
H       0.202350   -2.451310   -1.626934
H       1.850058   -0.495926   -0.758740
H       1.868450   -0.485184    1.006884
