17

C       0.030275   -1.243167   -0.093205
C      -0.023160   -0.042192   -0.095306
C      -0.056072    1.414402   -0.088530
C       1.333163    2.031138    0.175423
C       1.294471    3.527284    0.120063
N       0.440512    4.257501   -0.564958
C       0.802514    5.567561   -0.345182
C       1.889275    5.633185    0.482182
N       2.194398    4.320224    0.775536
H       0.059506   -2.304340   -0.098817
H      -0.431568    1.795665   -1.043555
H      -0.761114    1.771035    0.671283
H       1.705110    1.699643    1.151825
H       2.039110    1.641724   -0.569377
H       0.256834    6.384044   -0.792903
H       2.456595    6.455353    0.885058
H       2.944036    4.004585    1.368016
