17

C       0.052370   -1.207800    0.012102
C       0.048914   -0.004265    0.020757
C       0.026678    1.424203    0.054746
C       0.299736    2.253828   -1.194282
C       1.294114    2.287112   -0.072978
C       1.238237    3.397155    0.979545
C      -0.121776    3.274001    1.652033
O      -1.243589    3.438128    0.770253
C      -0.835825    2.108843    1.108204
H       0.058951   -2.269223   -0.003126
H       0.578098    1.700054   -2.083402
H      -0.345809    3.108607   -1.351847
H       2.244977    1.793761   -0.237290
H       2.020997    3.238773    1.729766
H       1.390128    4.395178    0.553990
H      -0.271066    3.656636    2.659140
H      -1.555817    1.515745    1.663297
