18

C      -0.322323    1.351554   -0.039204
N      -0.016426   -0.061808    0.155197
C       1.339892   -0.514940   -0.127881
C       0.833794   -0.461107    1.272723
C       1.412840    0.522188    2.248371
C       2.854759    0.475593    2.596708
O       2.344490    1.511692    1.776641
C       0.507806    1.060054    3.319437
O      -0.593249    0.635866    3.553031
H       0.519822    2.030066    0.158650
H      -0.642217    1.495709   -1.075655
H      -1.156049    1.624777    0.614620
H       1.428302   -1.467608   -0.643638
H       2.080707    0.234246   -0.402084
H       0.504908   -1.375857    1.762424
H       3.190578    0.784359    3.585835
H       3.468192   -0.270744    2.095879
H       0.958485    1.905057    3.886768
