20

C       0.020730    1.529593   -0.121616
C      -0.154702    0.028478   -0.185862
C      -0.214056   -0.796555    1.071880
C      -1.457402   -0.604851    0.239624
C       1.482582    1.985410   -0.007825
C       1.660909    3.526513   -0.112290
O       2.389252    3.887232    1.086077
C       2.514611    2.732627    1.783573
N       2.072622    1.647090    1.306122
H      -0.409726    1.987780   -1.023611
H      -0.537994    1.935801    0.731618
H       0.340447   -0.437158   -1.035262
H       0.262485   -1.770467    1.071363
H      -0.139636   -0.269135    2.015681
H      -2.234067    0.047209    0.626944
H      -1.833407   -1.445848   -0.332761
H       2.067930    1.473540   -0.782259
H       2.246105    3.848419   -0.976884
H       0.707224    4.065425   -0.105902
H       3.012551    2.844359    2.740771
