23

C       2.481247    1.776742    0.359288
C       1.239533    1.478202   -0.487151
C       1.399681    0.367984   -1.498288
C       2.315606   -0.816637   -1.327226
C       2.505931    0.102701   -2.508712
C       1.455932   -0.090392   -3.632478
C       0.446476   -1.171225   -3.342407
C       0.331515    0.159482   -2.640934
C      -0.885045    1.032342   -2.778034
H       2.744511    0.935272    1.007274
H       3.349012    2.001603   -0.270436
H       2.305120    2.644318    1.002232
H       0.400226    1.236623    0.180880
H       0.946145    2.397184   -1.010782
H       3.068663   -0.690744   -0.555581
H       1.987069   -1.845033   -1.426495
H       3.429620    0.648580   -2.658722
H       1.577985    0.327676   -4.624436
H      -0.289677   -1.307741   -4.130283
H       0.702686   -2.097922   -2.841835
H      -1.638378    0.801471   -2.014190
H      -0.642947    2.097138   -2.690811
H      -1.354602    0.882433   -3.755777
