17

C       0.005664    1.447939   -0.007513
N       0.016268   -0.010684   -0.012799
C       0.046129   -0.721982   -1.165823
N       0.057710   -2.014155   -1.258229
C       0.037463   -2.715845   -0.071500
C       0.051727   -4.209336   -0.219314
C       0.006950   -2.095302    1.142282
C      -0.005913   -0.658103    1.255575
O      -0.032357    0.012161    2.273504
H       0.873634    1.824435    0.538079
H       0.025011    1.809190   -1.036677
H      -0.890139    1.811863    0.500357
H       0.061368   -0.127778   -2.077416
H      -0.811944   -4.535255   -0.808455
H       0.944783   -4.522199   -0.770499
H       0.034603   -4.714169    0.748471
H      -0.008779   -2.652742    2.070513
