14

O      -0.131197    1.341544    0.121158
C       0.067348    0.008038    0.079021
N       0.094811   -0.647616   -1.086892
N       0.213795   -1.927993   -0.661699
C       0.762699   -3.244584   -1.020304
C       0.788474   -3.519237    0.537715
C       0.345050   -2.068638    0.667560
C       0.243514   -0.813693    1.232138
H      -0.219552    1.640139   -0.792826
H       0.097955   -3.861370   -1.630748
H       1.755862   -3.196984   -1.475765
H       0.081849   -4.275691    0.886158
H       1.781504   -3.741919    0.933580
H       0.271609   -0.495964    2.259628
