20

C       0.241169    1.183341   -0.170613
C       0.029099   -0.290778    0.174036
O       0.594350   -0.608143    1.449350
C      -1.432668   -0.687608    0.118467
C      -2.079962   -1.085363   -1.193223
C      -1.845930   -2.117460   -0.137552
O      -0.878193   -3.088569   -0.446219
C      -0.207841   -3.618463    0.609197
N       0.523441   -4.629670    0.427494
H       1.301658    1.439204   -0.100118
H      -0.108665    1.405823   -1.183023
H      -0.314835    1.828089    0.522121
H       0.588252   -0.912313   -0.532438
H       0.195960   -0.018942    2.099811
H      -2.064134   -0.140541    0.817445
H      -3.094997   -0.770239   -1.404839
H      -1.432577   -1.148867   -2.061758
H      -2.701357   -2.513000    0.405213
H      -0.360323   -3.066326    1.542085
H       0.976899   -4.884687    1.302846
