17

C       0.575613    0.496382   -0.992113
C      -0.165546    0.347754    0.320442
O       0.237252    0.830962    1.358410
C      -1.432741   -0.431969    0.310656
C      -2.348740   -0.641291    1.524591
C      -2.609471   -2.109681    1.053966
C      -1.690115   -1.864963   -0.149910
N      -2.113429   -0.736645   -0.949140
H       1.534815    0.982594   -0.811090
H       0.726940   -0.474952   -1.472973
H      -0.022836    1.092223   -1.688532
H      -1.797277   -0.588249    2.463370
H      -3.211284    0.030010    1.580945
H      -2.213506   -2.847806    1.754350
H      -3.639291   -2.383270    0.802038
H      -0.997413   -2.570674   -0.595201
H      -3.115418   -0.560150   -0.892878
