18

C      -0.024659    1.387510    0.081316
N      -0.026959   -0.047930   -0.100245
C       0.636879   -0.621810   -1.139107
N       1.222935    0.059687   -2.050890
N       0.591616   -2.030888   -1.094636
C       1.136834   -3.044843   -2.006144
C       0.572185   -4.124909   -1.035553
C       0.076337   -2.940870   -0.188519
O      -0.516319   -2.783327    0.849910
H       0.981859    1.776125    0.279963
H      -0.399674    1.888269   -0.816048
H      -0.673834    1.632250    0.924444
H      -0.375447   -0.655560    0.625739
H       1.642208   -0.542900   -2.754019
H       0.686057   -3.025148   -3.002157
H       2.226810   -3.015756   -2.090465
H      -0.224066   -4.751755   -1.439920
H       1.316465   -4.750612   -0.540642
