17

C      -0.121972    1.511814    0.000323
C       0.096663    0.022686   -0.038866
C       1.235385   -0.638790   -0.861436
C       1.063356   -1.813734    0.127791
C       0.603814   -0.785433    1.186127
O      -0.069034   -2.603140   -0.278034
C      -1.209930   -1.933079   -0.581964
O      -2.201442   -2.497384   -0.928203
O      -1.152288   -0.582940   -0.467480
H       0.793113    2.018395    0.319137
H      -0.402841    1.884038   -0.989227
H      -0.924394    1.762996    0.700088
H       1.055916   -0.831310   -1.920871
H       2.187399   -0.124069   -0.717862
H       1.868883   -2.518272    0.325800
H       1.451017   -0.295048    1.669502
H      -0.130888   -1.106876    1.926778
