20

C      -0.354783    1.298357   -0.110083
O       0.228833    0.020485    0.070161
C       0.805002   -0.501216   -1.083420
C      -0.090896   -1.091857   -2.139664
C       0.809895   -1.990732   -1.305690
C       2.188617   -2.362002   -1.794365
C       2.695152   -1.840616   -3.089417
N       3.050256   -1.153347   -1.841486
C       2.204623    0.004961   -1.477358
H       0.395138    2.059862   -0.367952
H      -1.122201    1.285301   -0.896895
H      -0.820307    1.572595    0.839354
H      -1.145841   -1.139078   -1.888649
H       0.108210   -0.930005   -3.192858
H       0.332021   -2.647402   -0.588988
H       2.633327   -3.254604   -1.363339
H       3.530299   -2.332185   -3.582403
H       1.997430   -1.369380   -3.776527
H       2.198395    0.739756   -2.290150
H       2.642242    0.482411   -0.594420
