17

O       0.406139    1.165075    1.446921
C       0.257765    1.646155    0.345553
N       1.244683    1.772713   -0.590438
C       2.531417    1.157011   -0.438366
C       3.742710    1.898740   -0.944424
C       3.533600    1.723501    0.537754
C       3.173180    2.907661    1.418536
C       4.353278    3.671543    1.825184
N       5.292050    4.267130    2.140087
H      -0.705003    2.061523   -0.013250
H       0.975471    2.085131   -1.511443
H       2.527930    0.073856   -0.533511
H       4.524953    1.334494   -1.437952
H       3.576631    2.890469   -1.353270
H       4.156061    0.984017    1.030351
H       2.490574    3.580025    0.889183
H       2.640232    2.559746    2.309240
