23

C      -0.320150    1.626083    0.298841
C       0.195481    0.203246    0.046680
C       0.709707   -0.498721    1.305522
C       1.995871    0.133577    1.835691
O      -0.280278   -0.526236    2.397959
C      -0.052001   -1.925422    2.589220
C      -0.551372   -2.728988    1.432813
C      -1.828511   -2.424192    0.678641
C       0.802818   -2.031606    1.343912
H       0.475259    2.302504    0.625509
H      -0.752309    2.045085   -0.614866
H      -1.094503    1.620392    1.071175
H      -0.601108   -0.392030   -0.402747
H       1.014492    0.222279   -0.683888
H       1.835762    1.182967    2.095734
H       2.337714   -0.391059    2.731606
H       2.788757    0.081476    1.080974
H       0.081647   -2.275678    3.607090
H      -0.383814   -3.793705    1.595724
H      -2.126088   -1.383467    0.817780
H      -1.732073   -2.622087   -0.394222
H      -2.640432   -3.053800    1.058762
H       1.719236   -2.584591    1.178464
