18

C      -0.130621    1.538432   -0.019108
C      -0.004642    0.009633   -0.004513
N      -1.272373   -0.709733    0.045676
C      -2.066314   -0.785129   -1.171819
C      -1.940005   -0.811966    1.233878
N      -3.222404   -1.100432    1.318138
O      -3.490975   -1.185480    2.672131
N      -2.385828   -0.926712    3.414587
C      -1.425545   -0.693039    2.568428
H       0.860406    2.000995   -0.064376
H      -0.701545    1.880023   -0.887648
H      -0.635005    1.901489    0.881744
H       0.522048   -0.329822   -0.902876
H       0.608598   -0.309496    0.844546
H      -1.393997   -0.917281   -2.023251
H      -2.740040   -1.642597   -1.112286
H      -2.680565    0.110954   -1.338736
H      -0.432322   -0.458001    2.914782
