22

C      -0.214492    1.508394   -0.174952
C      -0.086042    0.065554    0.306242
N      -1.362331   -0.634078    0.173376
C      -1.610747   -1.328869   -1.098774
C      -1.384007   -2.093432    0.146532
C      -0.263971   -3.021622    0.631907
C      -1.161458   -3.363167    1.859786
C      -2.388846   -2.763775    1.098619
O      -3.266204   -1.903543    1.760613
H       0.730687    2.043859   -0.043840
H      -0.480126    1.543862   -1.236429
H      -0.993327    2.033207    0.385316
H       0.719432   -0.442538   -0.249330
H       0.196670    0.048525    1.365887
H      -2.611627   -1.227430   -1.511309
H      -0.807870   -1.314952   -1.835871
H      -0.118422   -3.873781   -0.038160
H       0.710678   -2.572285    0.834228
H      -1.221280   -4.409039    2.167216
H      -0.918027   -2.744693    2.727605
H      -2.968398   -3.553027    0.603346
H      -2.918317   -1.013829    1.584363
