22

O      -0.045805    1.479285    0.004123
C       0.003902    0.045970   -0.011324
C      -1.381964   -0.609869   -0.093909
C      -2.146851   -0.162000   -1.351035
O      -2.476387    1.211395   -1.344742
C      -1.252338   -2.138496   -0.050361
N      -0.652455   -2.589976    1.202196
C      -1.578364   -2.897731    2.288535
C      -0.872999   -3.986094    1.557338
H      -0.417667    1.749441    0.850604
H       0.585532   -0.209605   -0.905035
H       0.549400   -0.335398    0.858716
H      -1.970163   -0.290420    0.779452
H      -1.553692   -0.431454   -2.244284
H      -3.094166   -0.710013   -1.422876
H      -1.659225    1.679116   -1.120144
H      -2.246319   -2.593401   -0.215715
H      -0.607368   -2.481649   -0.870205
H      -1.259768   -2.603446    3.284337
H      -2.644591   -2.782154    2.097658
H      -1.470420   -4.595419    0.880656
H      -0.028692   -4.500209    2.007552
