18

O      -0.062695    1.380958    0.063027
C       0.006078   -0.012651    0.030213
C       0.933167   -0.710577    1.030590
C       0.613423   -2.189413    0.690966
C      -0.419580   -1.980145   -0.421463
C      -1.346659   -0.777746   -0.048466
C      -1.450125   -0.414434   -1.551112
C       0.033167   -0.799649   -1.334873
H       0.830323    1.728893   -0.030748
H       1.984918   -0.450336    0.861620
H       0.686346   -0.437245    2.061047
H       1.489455   -2.744082    0.340412
H       0.197517   -2.736141    1.542905
H      -0.873777   -2.852751   -0.892105
H      -2.136364   -0.769035    0.705630
H      -2.042659   -1.088259   -2.176058
H      -1.653120    0.632135   -1.782902
H       0.842682   -0.816498   -2.068739
