15

C      -0.099627    1.560376   -0.004077
C      -0.018098    0.028691   -0.000536
C       1.185145   -0.523583   -0.825388
O       1.943582   -0.777546    0.370145
C       0.795246   -0.539648    1.203060
C      -1.309252   -0.584466   -0.253557
C      -2.378617   -1.093137   -0.463223
H       0.888951    1.988105    0.189330
H      -0.455307    1.927216   -0.971275
H      -0.789591    1.913443    0.767832
H       0.961586   -1.443681   -1.378513
H       1.680099    0.195376   -1.488366
H       1.007043    0.167645    2.013182
H       0.385267   -1.467427    1.619774
H      -3.321524   -1.545209   -0.648366
