16

O      -0.170079    0.043022    0.141859
C      -0.016437    1.225882   -0.050440
C       1.288845    1.907358   -0.052254
C       1.367416    3.391061    0.281078
C       1.628485    2.957039   -1.118790
C       3.073654    2.660806   -1.487794
O       3.609461    1.928985   -0.393457
C       2.570061    1.116060    0.149440
H      -0.885813    1.896617   -0.245608
H       0.429511    3.897077    0.485018
H       2.204772    3.702101    0.897096
H       0.920074    3.197128   -1.903312
H       3.106740    2.076899   -2.421613
H       3.690766    3.555952   -1.616367
H       2.818093    0.927256    1.197643
H       2.488779    0.150374   -0.369452
