18

C      -0.008643   -1.227347    0.037045
C      -0.018333   -0.024061    0.004637
C      -0.020493    1.412070   -0.035563
C      -1.142570    2.183651    0.732450
C      -1.215993    3.243772   -0.395759
C      -0.009634    4.202313   -0.388667
N       0.890055    3.173461   -1.017024
C       1.331820    2.176839    0.010210
C      -0.337276    2.316033   -1.290906
H      -0.000471   -2.288668    0.065498
H      -2.052545    1.579745    0.762166
H      -0.907022    2.523777    1.745801
H      -2.198851    3.631101   -0.664297
H      -0.132761    5.045042   -1.076403
H       0.335584    4.586747    0.577992
H       1.634652    2.602505    0.973278
H       2.152470    1.572681   -0.386518
H      -0.544366    1.961436   -2.299465
