14

C      -0.018268    1.446612    0.073631
C      -0.006424   -0.039187   -0.053297
N      -0.102813   -0.630364   -1.195948
C      -0.073072   -2.003275   -1.109478
O      -0.173342   -2.598865   -2.293634
N       0.037368   -2.727724   -0.040893
C       0.138749   -2.072828    1.165048
N       0.253927   -2.555775    2.323985
O       0.112150   -0.657381    1.121763
H       0.905127    1.784225    0.554258
H      -0.116792    1.899185   -0.911550
H      -0.847745    1.756374    0.716791
H      -0.142711   -3.552408   -2.125791
H       0.263514   -3.571689    2.252742
