21

C      -0.001866    1.581545   -0.181638
C       0.024769    0.071896    0.088584
C      -1.379507   -0.533401    0.165555
C      -1.510573   -2.074092    0.246135
C      -0.758860   -2.433916    1.554248
C      -1.903658   -1.673079    2.240914
C      -2.866764   -2.099921    1.116029
O      -3.503548   -0.822141    1.053311
C      -2.193300   -0.320458    1.466108
H       1.011206    1.992375   -0.231751
H      -0.500371    1.803989   -1.131315
H      -0.539361    2.121553    0.605230
H       0.588149   -0.428157   -0.709726
H       0.580942   -0.114554    1.013683
H      -1.982102   -0.144147   -0.661943
H      -1.383757   -2.651436   -0.668628
H      -0.829960   -3.501761    1.783359
H       0.276171   -2.110649    1.676592
H      -2.146454   -1.720248    3.300982
H      -3.524993   -2.967514    1.098353
H      -2.229021    0.656552    1.946462
