20

C      -0.048997    1.524210    0.019331
C      -0.026166    0.000524    0.081873
N       0.839504   -0.463420    1.153094
C       0.915376   -1.846406    1.367294
C       0.461742   -2.852603    0.541819
N       0.788705   -4.061133    1.146546
C       1.436206   -3.829234    2.326391
N       1.923519   -4.921284    3.075110
C       1.527086   -2.466318    2.504207
H       0.960552    1.921729   -0.120390
H      -0.676890    1.868990   -0.807225
H      -0.456100    1.951155    0.943772
H      -1.055732   -0.390038    0.180253
H       0.365461   -0.400954   -0.861843
H       0.677802    0.044266    2.013736
H      -0.070553   -2.823914   -0.392690
H       0.746659   -4.963633    0.707543
H       1.182903   -5.406126    3.574530
H       2.598696   -4.606175    3.760710
H       1.960388   -1.962611    3.355577
