18

O      -0.073058    1.466119    0.095899
C       0.040397    0.054074    0.029703
C       0.735197   -0.503894    1.280810
O       0.747179   -1.922105    1.284967
C      -0.550503   -2.469012    1.297899
C      -1.361923   -2.052878    0.049274
C      -1.376522   -0.509790   -0.064138
C      -0.815615   -2.674863   -1.161467
N      -0.394777   -3.164486   -2.120095
H       0.803776    1.846440   -0.017547
H       0.610463   -0.258796   -0.857701
H       1.782349   -0.187989    1.322261
H       0.220782   -0.110814    2.173677
H      -0.433692   -3.554044    1.344768
H      -1.107689   -2.135949    2.189379
H      -2.389838   -2.416304    0.166858
H      -1.965155   -0.106613    0.768294
H      -1.854149   -0.187346   -0.992597
