16

N      -0.032310    1.504019    0.143788
C      -0.031956    0.070826   -0.066140
C      -1.451414   -0.545148   -0.128316
C      -1.256427   -1.838046   -0.967881
N      -0.146987   -1.472569   -1.829328
C       0.610220   -0.427219   -1.381181
O       1.595434    0.039462   -1.906769
C      -2.065963   -0.788419    1.169814
N      -2.548958   -1.003832    2.197135
H       0.929078    1.819628    0.238561
H      -0.388387    1.972548   -0.686443
H       0.524742   -0.394481    0.757152
H      -2.091920    0.145791   -0.689312
H      -1.018990   -2.690131   -0.317926
H      -2.151961   -2.087596   -1.542853
H       0.145397   -2.027556   -2.618506
