17

O      -0.496685    1.386201   -0.858562
C      -0.151915    0.272480   -0.040490
C      -1.424888   -0.539117    0.155710
C      -1.171272   -1.856606    0.878672
O      -0.863325   -2.939900   -0.003559
C       0.229255   -2.954330   -0.799484
O       0.454819   -3.949166   -1.442508
C       1.154870   -1.789778   -0.901816
C       1.004768   -0.490258   -0.632354
H       0.272749    1.959225   -0.940434
H       0.180794    0.629429    0.951942
H      -2.133816    0.069553    0.725332
H      -1.885741   -0.742926   -0.816332
H      -0.379218   -1.752785    1.632171
H      -2.074531   -2.193047    1.391124
H       2.086332   -2.112381   -1.356540
H       1.856929    0.148433   -0.869872
