21

C      -0.076090    1.566408    0.011770
C       0.036271    0.039052    0.023169
C       0.611419   -0.478010   -1.323436
C       1.208649   -1.865557   -1.257964
C       1.181739   -2.530610   -0.114715
C       1.952364   -3.580831    0.645325
O       1.742145   -2.812497    1.866218
C       0.734134   -1.987012    1.210059
C       0.843100   -0.472269    1.243489
H       0.915132    2.031509   -0.042827
H      -0.654578    1.914902   -0.850804
H      -0.568810    1.935393    0.917091
H      -0.979681   -0.369506    0.123644
H      -0.167316   -0.414739   -2.095740
H       1.404925    0.206075   -1.661762
H       1.735810   -2.236637   -2.133758
H       1.481882   -4.572326    0.712533
H       3.014216   -3.701694    0.402036
H      -0.268026   -2.308828    1.533505
H       1.897246   -0.183341    1.157579
H       0.447675   -0.039953    2.169065
