25

C      -0.264895    1.631515    0.078976
C      -0.110479    0.106935    0.105209
C       0.737730   -0.489559    1.230775
C       2.068510    0.144270    1.567670
C       0.913156    0.254697    2.534444
C       0.682714   -2.017339    1.354594
C      -0.691341   -2.547111    1.791070
C       1.165811   -2.714377    0.079175
O       1.356146   -4.091940    0.379957
H       0.699077    2.147040    0.023593
H      -0.843962    1.932496   -0.799520
H      -0.795368    2.002338    0.961042
H      -1.113607   -0.334443    0.149083
H       0.314290   -0.214127   -0.855171
H       2.893150   -0.512077    1.826731
H       2.373504    1.040859    1.038865
H       0.448155    1.225609    2.657216
H       0.953427   -0.330346    3.447596
H       1.404112   -2.299029    2.133432
H      -1.465350   -2.332473    1.046065
H      -0.649128   -3.631102    1.919520
H      -1.002983   -2.094969    2.737664
H       0.424935   -2.590295   -0.726180
H       2.105673   -2.250728   -0.259921
H       1.578270   -4.549686   -0.435605
