19

C       0.043130    1.521043    0.413596
C      -0.075305    0.029211    0.212368
C      -1.307011   -0.604347   -0.273386
O      -0.182732   -0.435024   -1.138828
C       1.430281    2.060077    0.072136
C       1.892636    2.043951   -1.437056
C       2.028614    3.568481   -1.360387
O       0.743595    4.092198   -0.995638
C       1.592056    3.592461    0.044469
H      -0.697974    2.032514   -0.208819
H      -0.193461    1.751553    1.461882
H       0.592408   -0.580327    0.825856
H      -1.535999   -1.633578   -0.000101
H      -2.171310    0.017245   -0.504436
H       2.195069    1.601013    0.708123
H       2.845051    1.527131   -1.575087
H       1.166074    1.671140   -2.160565
H       2.691909    4.231202   -1.903966
H       1.828304    4.271466    0.856579
