21

C       0.522713    1.710155   -0.118487
C       0.105958    0.236469   -0.031553
C       0.626005   -0.597092   -1.229456
O       0.459735    0.121449   -2.437784
C       2.084477   -0.927247   -0.866198
C       2.103362   -0.956859    0.665553
O       3.039144   -1.267153    1.357090
C       0.721901   -0.516926    1.172295
C       0.755802    0.168980    2.534709
H       1.610420    1.837323   -0.077040
H       0.174568    2.144538   -1.057232
H       0.093486    2.283203    0.707910
H      -0.987357    0.189195   -0.000957
H       0.046875   -1.534077   -1.265567
H       0.772930   -0.429486   -3.161525
H       2.468709   -1.860726   -1.286808
H       2.744819   -0.119190   -1.203739
H       0.167361   -1.464920    1.277269
H       1.289168    1.122428    2.490787
H      -0.254526    0.359891    2.908750
H       1.279537   -0.466661    3.253068
