17

O       0.257220    1.084845   -0.256082
C       0.001612   -0.218757    0.178842
C      -1.459969   -0.574885   -0.017249
O      -2.263949    0.187021   -0.492973
O      -1.739778   -1.818949    0.409363
C      -3.082338   -2.263748    0.266394
C      -3.370721   -3.241703   -0.842325
C      -3.250568   -3.716188    0.592851
O      -2.142957   -4.465153    0.981530
H      -0.587772    1.425118   -0.585024
H       0.609871   -0.953364   -0.370924
H       0.246618   -0.341767    1.244593
H      -3.812356   -1.518906    0.556740
H      -4.343463   -3.201826   -1.319628
H      -2.540453   -3.495665   -1.492125
H      -4.157401   -4.012608    1.112899
H      -1.417766   -3.852508    1.148998
