18

C       0.261814    0.720182    0.663300
N      -0.338173    0.403828   -0.640879
C       0.370300   -0.528953   -1.413821
C       0.672052   -1.869482   -1.289744
O       0.275711   -2.647857   -0.258020
C       0.696226   -4.005650   -0.313386
N       1.414265   -2.320946   -2.339421
C       1.582126   -1.266595   -3.120579
N       0.977919   -0.169399   -2.611921
H       0.399251   -0.159575    1.307368
H       1.239523    1.185179    0.506345
H      -0.376953    1.441418    1.182477
H      -1.299283    0.107709   -0.511309
H       0.306605   -4.507088   -1.205568
H       1.788480   -4.084079   -0.324782
H       0.296927   -4.478825    0.585563
H       2.128314   -1.257533   -4.051315
H       0.938301    0.755177   -3.007853
