17

C      -0.159615    1.549853   -0.133804
C       0.027343    0.026724   -0.013332
O       0.746029   -0.171332    1.207885
C      -1.281501   -0.652171    0.044490
C      -2.342435   -1.211188    0.118936
C       0.791089   -0.498953   -1.160271
C       1.434789   -0.919611   -2.087750
C       2.188300   -1.485287   -3.207035
O       1.409798   -2.322930   -4.048259
H       0.822526    2.026590   -0.159780
H      -0.707809    1.794812   -1.044839
H      -0.714610    1.910431    0.734807
H       0.874317   -1.120407    1.318185
H      -3.281835   -1.703211    0.181195
H       2.564476   -0.682422   -3.850659
H       3.071069   -2.015185   -2.814027
H       0.962889   -2.963961   -3.485580
