21

C       0.018663    1.331422   -0.195039
O      -0.007997   -0.037363    0.143471
C      -1.305147   -0.599997    0.145454
C      -1.868629   -0.852082   -1.282008
O      -2.594734   -2.074468   -1.238309
C      -2.100854   -2.830888   -0.160451
C      -0.615370   -3.053851   -0.053623
C      -1.300547   -1.979168    0.781966
C      -1.348101   -2.077129    2.285997
H       1.053400    1.668822   -0.097647
H      -0.312552    1.515209   -1.228321
H      -0.614650    1.928716    0.479903
H      -1.983736    0.054849    0.717294
H      -2.550660   -0.073511   -1.634511
H      -1.022142   -0.913887   -1.981549
H      -2.808083   -3.586345    0.162546
H      -0.284041   -3.940686    0.476678
H       0.029010   -2.756073   -0.872733
H      -0.442550   -1.650354    2.731149
H      -2.210198   -1.536380    2.694440
H      -1.420509   -3.118755    2.614156
