15

O      -0.007569    0.036888   -0.644192
C       0.042510    1.188610   -0.285509
N      -1.010949    1.986670    0.059827
C      -0.659296    3.316267    0.526700
C       0.756420    3.500835   -0.057194
C       1.322700    2.060951   -0.115725
C       2.023094    1.673508    1.102105
C       2.582801    1.375243    2.123202
H      -1.931579    1.588011    0.154227
H      -1.361039    4.067893    0.153026
H      -0.651656    3.373206    1.623672
H       0.684385    3.898988   -1.073170
H       1.371852    4.175858    0.537841
H       1.970173    1.900555   -0.982024
H       3.086385    1.094783    3.014978
