22

C       0.257746    1.493672   -0.526182
C       0.016121    0.063944   -0.094918
C       1.133231   -0.919046   -0.043704
N       0.496551   -0.468894    1.190681
C       1.184590    0.385559    2.106850
C       2.617272    0.856207    2.052103
C       2.157841    0.020191    3.227539
C       1.387460    0.896758    4.218383
C       0.385610    1.268095    3.076144
H       1.268453    1.827529   -0.281215
H       0.121945    1.586888   -1.609230
H      -0.451597    2.175852   -0.045160
H      -0.973024   -0.313999   -0.350458
H       0.977427   -1.964620   -0.297120
H       2.123983   -0.539118   -0.285779
H       3.261283    0.329231    1.355839
H       2.875816    1.906595    2.185218
H       2.621975   -0.933781    3.448867
H       0.908818    0.330663    5.020289
H       1.953758    1.722382    4.663187
H       0.297812    2.326096    2.807532
H      -0.612169    0.863059    3.256443
