22

O       0.219609    1.357563    0.207523
C       0.019114    0.007116   -0.187550
C      -1.415934   -0.448191    0.012436
C      -1.769779   -1.109821    1.301706
N      -1.551307   -1.912030    0.098456
C      -2.723650   -2.582630   -0.497681
C      -3.520032   -1.732743   -1.494684
C      -3.786943   -0.333818   -0.933713
C      -2.452724    0.392297   -0.724318
H       0.025309    1.414126    1.149096
H       0.275647   -0.028721   -1.252748
H       0.693635   -0.683061    0.338787
H      -1.027512   -1.230130    2.090020
H      -2.790773   -1.003144    1.665372
H      -2.363391   -3.491728   -0.992983
H      -3.387631   -2.911404    0.312160
H      -2.957585   -1.638236   -2.433077
H      -4.453218   -2.252097   -1.738572
H      -4.414205    0.247256   -1.617592
H      -4.345491   -0.408946    0.008257
H      -2.588414    1.346150   -0.204852
H      -2.038982    0.644365   -1.710171
