14

N       0.081490    1.428968    0.102990
C       0.011397    0.019289    0.016864
C      -1.087676   -0.811121    0.030778
N      -0.630047   -2.109088   -0.006262
C       0.746169   -2.118729   -0.041254
C       1.173054   -0.809024   -0.027080
N       2.483012   -0.283229   -0.113011
H       0.702612    1.800239   -0.609838
H      -0.826823    1.861265   -0.014637
H      -2.141233   -0.585895    0.066531
H      -1.212026   -2.925247   -0.006932
H       1.302514   -3.041331   -0.077137
H       3.187598   -1.002132   -0.001215
H       2.633778    0.420550    0.603746
