18

C       0.183221    1.572643    0.108069
C       0.069824    0.063447   -0.001522
C       0.722896   -0.575674   -1.248859
C       1.217327   -1.928093   -0.723537
O       0.798097   -3.097931   -1.356407
C       2.499409   -1.925860    0.083909
C       1.149066   -1.821305    0.766169
O       0.737430   -0.533259    1.128072
H       1.232836    1.881423    0.075238
H      -0.349486    2.056639   -0.716579
H      -0.248723    1.923563    1.049445
H      -0.991167   -0.231475    0.030201
H      -0.000268   -0.729375   -2.053360
H       1.538808    0.048504   -1.631790
H       1.398516   -3.270989   -2.089711
H       3.013373   -2.877775    0.173654
H       3.130797   -1.043488    0.072903
H       0.787029   -2.630029    1.392959
