14

C      -0.016109    1.483075    0.025872
C       0.000074   -0.015148   -0.005219
N      -0.024507   -0.602993   -1.180341
C      -0.008906   -1.957599   -1.241719
O      -0.025140   -2.677429   -2.188553
O       0.034572   -2.655001    0.053839
C       0.056006   -1.931397    1.161082
N       0.095302   -2.661254    2.283947
N       0.040913   -0.621866    1.210983
H       0.882694    1.849164    0.532986
H      -0.065488    1.886726   -0.984383
H      -0.871807    1.829897    0.614002
H       0.106013   -3.664875    2.236321
H       0.113029   -2.184994    3.168609
