22

C       0.051578    1.564872    0.007640
C      -0.009102    0.035825   -0.042018
C       0.730835   -0.547384   -1.250484
C       0.669668   -2.066992   -1.298342
O       1.387172   -2.503206   -2.445121
C       1.478264   -3.907140   -2.579135
C       0.249057   -4.521440   -3.265557
C       2.699538   -4.194211   -3.354575
N       3.645538   -4.452823   -3.964222
H       1.087053    1.917344    0.066140
H      -0.397706    2.007460   -0.888003
H      -0.483871    1.956183    0.877938
H       0.417131   -0.377140    0.881796
H      -1.058044   -0.288221   -0.064026
H       0.305168   -0.151007   -2.180210
H       1.783583   -0.241235   -1.233825
H       1.118350   -2.501614   -0.389562
H      -0.377884   -2.404601   -1.339660
H       1.612495   -4.372697   -1.589062
H       0.374256   -5.601326   -3.382495
H      -0.644602   -4.341083   -2.663056
H       0.109633   -4.071827   -4.251191
