19

C      -0.053773    1.577347   -0.021220
C       1.453545    1.965308   -0.019782
C       2.111718    0.790158   -0.708216
C       3.538084    0.270434   -0.593322
C       3.331521   -1.238525   -0.556045
C       2.039027   -1.583918   -0.586941
C       1.195188   -0.359275   -0.694835
C      -0.102541    0.021086   -0.022539
O       1.441692    0.394105   -1.915425
H      -0.594906    2.009406    0.824272
H      -0.519224    1.951124   -0.935166
H       1.632523    2.924704   -0.515584
H       1.844694    2.045181    1.002166
H       4.163078    0.576688   -1.440253
H       4.031975    0.636471    0.316055
H       4.163949   -1.934398   -0.548411
H       1.651602   -2.595287   -0.573691
H      -0.105544   -0.380250    0.998339
H      -0.993392   -0.362851   -0.529238
