24

C       0.045582    1.573887    0.064109
C       0.005623    0.044823    0.004926
C       0.705537   -0.524244   -1.232740
C       0.719073   -2.053617   -1.283057
C       1.319422   -2.580753   -2.589808
O       1.460421   -2.496475   -0.150366
C       1.214804   -3.826948    0.255879
C       1.989289   -4.085083    1.538559
H       1.077557    1.941821    0.088033
H      -0.441943    2.020623   -0.810124
H      -0.462134    1.952945    0.956764
H       0.478106   -0.378175    0.897229
H      -1.038825   -0.295602    0.017337
H       0.219577   -0.149583   -2.142887
H       1.745265   -0.171929   -1.264687
H      -0.319008   -2.420356   -1.192998
H       1.334335   -3.674113   -2.615209
H       0.733215   -2.237585   -3.448355
H       2.347067   -2.221750   -2.706232
H       0.134463   -3.979118    0.420328
H       1.524895   -4.544437   -0.520504
H       1.822446   -5.108990    1.886668
H       3.061357   -3.945169    1.372864
H       1.672441   -3.393530    2.324505
