18

O      -0.068813    0.133188   -0.599535
C       0.051112    1.095534    0.125977
C       1.266147    1.937036    0.168984
N       2.239361    1.771264   -0.932917
C       2.603488    1.250236    0.375334
C       3.481285    2.159314    1.230569
C       2.669890    3.432749    1.494540
C       2.245501    4.311880    0.345132
C       1.290732    3.271124    0.875725
H      -0.761461    1.397600    0.820840
H       1.897663    1.001420   -1.510735
H       2.649702    0.172705    0.505744
H       3.696597    1.655435    2.178778
H       4.440071    2.358751    0.739912
H       2.783970    3.901524    2.465885
H       2.026433    5.348242    0.579115
H       2.673193    4.138350   -0.634379
H       0.388329    3.575812    1.394296
