26

C       4.486680   -3.840932   -0.119470
C       3.025427   -3.868618   -0.585297
C       2.852830   -4.803885   -1.789810
C       2.089515   -4.244056    0.580890
C       0.618634   -4.093551    0.232694
C      -0.317043   -5.238674   -0.021120
C       0.094408   -6.694533    0.031381
N      -0.467429   -4.399059    1.170445
C      -0.165513   -4.930463    2.491177
H       5.155170   -3.535320   -0.931170
H       4.628648   -3.143698    0.713018
H       4.809704   -4.833012    0.218586
H       2.756298   -2.851949   -0.907217
H       1.823707   -4.801434   -2.160383
H       3.507532   -4.505343   -2.615251
H       3.109304   -5.835998   -1.521042
H       2.327328   -5.260820    0.912122
H       2.315077   -3.586796    1.432253
H       0.425664   -3.175568   -0.326689
H      -1.112356   -5.062683   -0.747012
H       0.941523   -6.886986    0.691974
H      -0.740834   -7.316332    0.373233
H       0.371419   -7.040362   -0.970213
H       0.698038   -5.607330    2.554130
H       0.018824   -4.092549    3.171745
H      -1.043184   -5.470104    2.862053
