20

C      -0.124618    1.542234    0.177591
C      -0.039972    0.023238    0.028151
C      -1.411634   -0.629257   -0.099811
O       0.695761   -0.343446   -1.152713
C       2.065061   -0.454703   -1.032586
C       2.651586   -1.099139   -2.307484
N       3.387852   -0.027336   -2.992916
C       3.352434    0.961751   -2.203669
O       2.717037    0.852077   -1.008346
H       0.869069    1.984334    0.265555
H      -0.619415    1.978485   -0.696121
H      -0.706121    1.802252    1.068185
H       0.483788   -0.399457    0.899966
H      -1.930741   -0.248384   -0.984890
H      -1.317079   -1.713890   -0.198116
H      -2.024086   -0.409497    0.779577
H       2.341072   -0.941278   -0.088878
H       3.329768   -1.927078   -2.077487
H       1.842679   -1.481479   -2.935442
H       3.805356    1.930144   -2.385934
