20

C      -0.459156    1.712895   -0.213990
C       0.011767    0.278646    0.089236
C       0.776323   -0.317038   -1.002029
C       1.402784   -0.783359   -1.921099
C       2.167542   -1.374840   -3.000027
C       3.685727   -1.687319   -2.785086
C       3.494082   -2.989982   -3.605036
C       1.968524   -2.888531   -3.343693
H       0.394525    2.370082   -0.400915
H      -1.098387    1.731897   -1.100900
H      -1.027215    2.116263    0.629878
H       0.619451    0.280192    1.003677
H      -0.859379   -0.351694    0.311350
H       2.048846   -0.780255   -3.913450
H       4.402978   -0.946590   -3.145429
H       3.889870   -1.895446   -1.731823
H       3.735014   -2.842592   -4.661917
H       4.007928   -3.887495   -3.254896
H       1.669858   -3.448125   -2.453787
H       1.283703   -3.128753   -4.159961
