21

C       0.444564    1.455654   -0.082953
C       1.448533    0.359641    0.197826
C      -0.005908    0.029380   -0.032404
C      -0.867624   -0.529177    1.087490
O      -1.128848   -1.891326    0.743506
C      -0.730733   -2.140100   -0.606187
C      -0.457105   -0.778074   -1.221452
C      -1.375515   -0.201352   -2.270941
C       0.041316   -0.598818   -2.621160
H       0.157213    2.111992    0.732503
H       0.487044    1.950343   -1.048774
H       2.157352    0.111352   -0.585313
H       1.841376    0.271015    1.205603
H      -0.374296   -0.493837    2.066294
H      -1.820335    0.017539    1.164196
H       0.175361   -2.765744   -0.610677
H      -1.527869   -2.690481   -1.120293
H      -2.186906   -0.821036   -2.638954
H      -1.605025    0.857960   -2.220408
H       0.758859    0.192481   -2.816896
H       0.192145   -1.486103   -3.228031
