21

C      -0.237272    1.489380    0.180948
C      -0.033342   -0.013653    0.057461
O      -1.262288   -0.698215   -0.061754
C       1.089822   -0.418421   -0.930242
O       1.974644   -0.723792    0.165057
C       0.904618   -0.653345    1.123826
C       1.180080   -0.018994    2.501475
C       0.305002   -1.130019    3.144787
C       0.451618   -1.952178    1.835485
H       0.716587    2.006536    0.316195
H      -0.702861    1.886899   -0.730166
H      -0.886282    1.726523    1.029566
H      -1.843564   -0.185445   -0.632439
H       0.834720   -1.306879   -1.521689
H       1.496840    0.361336   -1.584938
H       2.239221   -0.137923    2.748736
H       0.900043    1.025641    2.657859
H       0.674708   -1.583618    4.066218
H      -0.724637   -0.800650    3.305772
H      -0.429588   -2.457722    1.440388
H       1.290709   -2.652165    1.881375
