21

C       0.302690    1.612404    0.170655
C       0.109327    0.110021    0.037804
C       1.026149   -0.685211   -0.941551
C       1.340801   -1.714204    0.192506
O       0.732844   -2.977475    0.045486
C       2.783852   -1.745903    0.708461
C       2.870408   -0.451412    1.526199
O       1.568970   -0.245852    2.076833
C       0.595290   -0.802159    1.209863
H       1.337848    1.864400    0.418705
H       0.045116    2.122316   -0.764131
H      -0.330886    2.022668    0.963907
H      -0.942486   -0.110678   -0.171204
H       0.526690   -1.120465   -1.810458
H       1.902378   -0.124349   -1.283116
H       1.143609   -3.421255   -0.704238
H       2.895673   -2.621326    1.355714
H       3.534921   -1.793060   -0.086279
H       3.579642   -0.504986    2.356687
H       3.160900    0.397293    0.887743
H      -0.185147   -1.264873    1.818428
