15

O       0.090023    1.395086   -0.064290
C       0.082964   -0.006208    0.077240
C      -1.353613   -0.550396    0.058139
N      -2.001899   -0.187832   -1.217916
C      -2.376304   -1.287476   -1.745598
N      -2.104000   -2.433616   -1.013862
C      -1.429097   -2.071049    0.157195
N      -0.960924   -2.784013    1.096606
H      -0.469473    1.589709   -0.826684
H       0.662627   -0.503244   -0.717469
H       0.548399   -0.251546    1.035531
H      -1.903427   -0.084389    0.883709
H      -2.879684   -1.371305   -2.703777
H      -2.308542   -3.376574   -1.299847
H      -1.120921   -3.781074    0.944408
