14

N      -0.242631    1.321672   -0.179711
C      -0.046873    0.071538   -0.158762
O       1.167192   -0.482754   -0.413300
C       1.358600   -1.905143   -0.461951
C       0.136013   -2.688212   -0.938277
O       0.205481   -3.584843   -1.741673
C      -1.137800   -2.254768   -0.289034
O      -0.967793   -1.871850    1.081961
C      -1.195184   -0.834356    0.135739
H       0.620164    1.816966   -0.414340
H       2.181458   -2.082080   -1.155344
H       1.639712   -2.269016    0.534150
H      -2.044391   -2.799344   -0.538562
H      -2.153652   -0.329488    0.205254
