18

C      -0.331697    1.395919    0.108472
C       0.167545   -0.041321   -0.094084
C       0.839398   -0.565419    1.157062
C       0.094134   -1.213144    2.261173
C       1.032718   -2.092979    1.421326
C       0.403280   -3.091195    0.498905
O      -0.733641   -3.018876    0.102978
C       2.292499   -2.493647    1.985569
N       3.307785   -2.830328    2.426983
H       0.489663    2.073558    0.365049
H      -0.801575    1.771500   -0.804852
H      -1.071570    1.447925    0.913614
H      -0.665239   -0.691985   -0.369588
H       0.883146   -0.068190   -0.924584
H       1.720179   -0.004350    1.459680
H       0.389403   -1.036701    3.288414
H      -0.955133   -1.436905    2.097532
H       1.072503   -3.922681    0.198959
