13

N      -0.100231    1.478734   -0.181762
C      -0.032446    0.075582   -0.019255
C      -0.360069   -0.872978   -1.178927
C      -1.120319   -0.981357    0.091778
O      -0.330287   -1.736105    1.051319
C       0.640530   -0.731712    1.055504
N       1.640193   -0.565402    1.791820
H      -0.115793    1.945099    0.719919
H       0.711608    1.823564   -0.684662
H      -0.873234   -0.366509   -1.990633
H       0.325487   -1.663417   -1.467488
H      -2.186244   -0.919107    0.256792
H       1.739815   -1.326683    2.465404
