19

O      -0.075809    1.462325   -0.124305
C       0.010604    0.046466   -0.097956
C      -1.401295   -0.511984    0.054483
C      -2.187286   -0.313893   -1.241457
C      -2.842139   -1.447985   -1.558519
C      -2.109721   -2.421812   -2.494165
C      -1.612917   -3.010679   -1.120465
C      -1.481448   -2.051069    0.140065
C      -2.803841   -2.457482   -0.393956
H       0.803222    1.816857   -0.286161
H       0.464718   -0.347683   -1.021178
H       0.625210   -0.303554    0.747548
H      -1.832351   -0.068899    0.964121
H      -1.797633    0.369950   -1.990307
H      -2.720800   -3.179723   -2.998848
H      -1.391582   -1.988104   -3.196266
H      -1.211582   -4.016513   -1.016396
H      -1.061013   -2.564206    1.004509
H      -3.629739   -2.958920    0.092963
