15

N      -0.054390    1.397108    0.017183
C       0.023477   -0.007547   -0.051724
C       0.338878   -0.986353    1.128676
O      -1.027536   -1.019694    1.618641
C      -1.161841   -1.007435    0.169635
C       0.062176   -1.940829   -0.072399
C       0.721687   -0.980906   -1.088836
C       0.210084   -0.962363   -2.446372
N      -0.222739   -0.911662   -3.518390
H       0.860486    1.830104    0.084941
H      -0.532378    1.788494   -0.787990
H       1.161494   -0.978999    1.843016
H      -2.156062   -1.023511   -0.273145
H       0.070073   -3.027258   -0.064577
H       1.815378   -0.965802   -1.087252
