15

O       0.012240   -0.046480    0.196549
C       0.016020    1.163045    0.117564
N      -1.027826    2.065597    0.134178
N      -0.653843    3.416735    0.027929
C       0.632042    3.316952   -0.069763
N       1.674280    4.201084   -0.278176
C       2.915622    3.469574    0.062516
C       2.542378    1.976826   -0.178729
N       1.106016    2.037434   -0.008186
H      -1.992225    1.828331    0.279757
H       1.565169    5.125324    0.113459
H       3.743383    3.793053   -0.571747
H       3.199440    3.621187    1.112532
H       2.806997    1.649657   -1.190418
H       3.014497    1.305200    0.540645
