16

O       0.076246    0.046524    0.005774
C       0.021291    1.252007    0.012033
C      -1.253938    2.112406    0.031883
C      -0.720485    3.522176    0.030939
C       0.615872    3.554956    0.013773
C       1.195673    2.192554    0.000541
C       2.469362    1.775822    0.727300
C       2.449976    1.781983   -0.762501
H      -1.879479    1.875292   -0.838317
H      -1.856978    1.867985    0.915839
H      -1.364118    4.393131    0.042842
H       1.224057    4.452225    0.009576
H       3.014297    2.555081    1.248584
H       2.426089    0.815237    1.229411
H       2.393556    0.825571   -1.271232
H       2.981276    2.565563   -1.291330
