20

C       0.246935    1.572125   -0.052328
C      -0.032587    0.063223    0.033611
N       0.249910   -0.498782   -1.284267
C       0.543672   -1.679992   -1.601356
O       0.701252   -2.836670   -0.905623
C       0.199508   -2.967947    0.429895
C       0.791695   -2.017776    1.443394
C       2.035103   -1.215829    1.141929
C       0.690452   -0.532684    1.237045
H       1.314479    1.750720   -0.215641
H      -0.302481    2.008071   -0.889828
H      -0.051451    2.080571    0.870277
H      -1.113913   -0.055987    0.205973
H       0.756180   -1.902576   -2.648472
H      -0.895262   -2.875413    0.405540
H       0.438207   -4.001191    0.697442
H       0.671602   -2.377333    2.462297
H       2.748661   -1.057688    1.942628
H       2.483341   -1.332480    0.162453
H       0.528635    0.053582    2.138506
