22

C      -0.045839    1.564918   -0.114276
C       0.046171    0.037838   -0.050265
C       0.715832   -0.499707    1.229338
C      -0.037278   -0.209138    2.519445
C      -0.289535   -1.310862    3.227528
C       0.224134   -2.533036    2.527042
C       0.716253   -3.724242    3.305973
N      -0.480826   -2.729272    1.222838
C       0.825713   -2.025938    1.264767
H       0.943385    2.029657   -0.029123
H      -0.483210    1.890540   -1.063378
H      -0.670920    1.968477    0.688902
H      -0.949564   -0.409521   -0.129670
H       0.619401   -0.323576   -0.913971
H       1.726811   -0.066701    1.289007
H      -0.350087    0.791380    2.796309
H      -0.816013   -1.352044    4.174666
H      -0.106220   -4.216325    3.838442
H       1.177548   -4.465250    2.644603
H       1.462660   -3.427261    4.050704
H      -0.309338   -3.683934    0.907265
H       1.683606   -2.510898    0.809016
