20

C      -0.366153    0.018059   -0.906206
C       0.096842    0.418260    0.495923
N       0.900009   -0.648742    1.087457
C       0.557026   -1.145291    2.180628
O      -0.522495   -0.820937    3.026018
C      -0.004585   -1.732566    4.025870
C      -0.023853   -3.133867    3.522697
C      -1.070425   -3.694120    2.587865
C       1.109291   -2.181223    3.101148
H      -1.033395   -0.848552   -0.863731
H      -0.906504    0.842217   -1.382724
H       0.490613   -0.246628   -1.532333
H       0.736740    1.306619    0.421821
H      -0.765851    0.688386    1.118338
H      -0.000669   -1.384433    5.050155
H       0.343046   -3.837126    4.269381
H      -1.463872   -2.919618    1.926531
H      -0.652802   -4.495095    1.970300
H      -1.909078   -4.107820    3.157713
H       2.154860   -2.387835    3.276647
