15

C      -0.398696    1.417980   -0.214055
C       0.102263   -0.010894   -0.115737
O       0.600527   -0.452191    0.880521
N      -0.040320   -0.842711   -1.286139
C      -0.045368   -0.280797   -2.551429
O      -0.004662   -0.886834   -3.601130
C      -0.162340   -2.293062   -1.054712
N       0.401448   -3.047873   -2.027870
O      -0.712256   -2.700077   -0.066817
H       0.301943    2.048313   -0.771524
H      -1.377046    1.483151   -0.696395
H      -0.458264    1.802040    0.804181
H      -0.080449    0.817135   -2.527805
H       0.534356   -2.628710   -2.939742
H       0.182565   -4.030480   -1.973906
