18

C      -0.031153    1.441551   -0.012891
N      -0.000130   -0.011567    0.037787
C       0.542413   -0.625986   -0.927000
N       1.148719   -0.118969   -2.085199
C       1.642689   -1.182939   -2.823906
N       1.426411   -2.345191   -2.343632
C       0.696411   -2.134704   -1.077064
C       1.469998   -2.792116    0.075695
O       1.623485   -4.174864   -0.145915
H       0.978302    1.880784   -0.052549
H      -0.591277    1.815410   -0.884232
H      -0.521593    1.827778    0.883493
H       1.270147    0.854054   -2.305919
H       2.174373   -0.989966   -3.750645
H      -0.284346   -2.619351   -1.146341
H       2.441072   -2.283161    0.188469
H       0.911589   -2.659166    1.006163
H       1.962522   -4.264743   -1.045444
