21

O      -0.113996    1.368223    0.022308
C       0.028326   -0.032720   -0.009145
C      -0.409979   -0.749145   -1.264205
C      -1.283138   -0.757436   -0.018819
C      -1.497827   -1.994906    0.834051
C      -1.286429   -1.735010    2.334967
O       0.074103   -1.704474    2.729048
C       0.827087   -0.568479    2.340839
C       1.172924   -0.550027    0.844664
H       0.634041    1.749751   -0.451600
H      -0.736260   -0.138737   -2.099157
H       0.097796   -1.669090   -1.538347
H      -2.135696   -0.085410   -0.064939
H      -2.517313   -2.370304    0.679593
H      -0.822893   -2.805109    0.534834
H      -1.792848   -0.800421    2.628644
H      -1.729701   -2.550815    2.916127
H       0.300404    0.361456    2.607223
H       1.744695   -0.619348    2.936260
H       1.462249   -1.562949    0.546111
H       2.050832    0.089888    0.680046
