25

C       0.927066    1.223931    0.292909
O       0.081439    0.174029   -0.131046
C       0.521296   -0.533403   -1.267760
C       1.705265   -1.449694   -1.050215
C       0.304396   -2.021584   -1.168492
C      -0.380632   -2.647637    0.025911
C       0.264039    0.225341   -2.572772
C       0.907134   -0.398770   -3.817826
C      -1.248329    0.419619   -2.769978
H       1.952143    0.872792    0.476837
H       0.970392    2.049537   -0.431053
H       0.509146    1.606211    1.227679
H       2.416559   -1.623022   -1.849352
H       2.142104   -1.440569   -0.056514
H       0.089158   -2.514668   -2.113048
H      -0.190955   -2.067362    0.930911
H      -1.465743   -2.690174   -0.118545
H      -0.024340   -3.671100    0.186812
H       0.714774    1.220286   -2.451474
H       0.525233   -1.406386   -4.015339
H       0.677454    0.210346   -4.697879
H       1.996021   -0.457189   -3.734040
H      -1.703418    0.848447   -1.874005
H      -1.452432    1.084300   -3.615757
H      -1.739518   -0.539337   -2.971167
