18

O       0.719590    0.282244    0.773018
C      -0.155149    0.462191   -0.326275
C      -1.459490   -0.347390   -0.211648
C      -2.242564   -0.303679   -1.523863
O      -2.529295    1.052846   -1.824044
C      -1.193516   -1.796452    0.215434
C      -1.017218   -2.003862    1.701531
O      -1.060499   -1.139556    2.543057
H       0.197686    0.361853    1.580772
H      -0.403459    1.519659   -0.482574
H       0.403545    0.126099   -1.210512
H      -2.085512    0.120717    0.558757
H      -1.647841   -0.772600   -2.326302
H      -3.169197   -0.891167   -1.417690
H      -2.967811    1.089623   -2.678808
H      -2.018750   -2.462013   -0.083318
H      -0.301386   -2.211191   -0.275736
H      -0.857538   -3.065092    1.995987
