16

C      -0.039355    1.483505   -0.143520
C       1.342318    2.049324    0.108493
C       2.432131    1.327052    0.375465
C       2.484183   -0.180631    0.474180
C       1.129136   -0.749561    0.227712
C       0.043442    0.007644   -0.040440
O      -1.026759   -0.827642   -0.212538
C      -0.502085   -2.067695   -0.032381
N       0.762896   -2.093936    0.230541
H      -0.758653    1.898562    0.578438
H      -0.405878    1.798888   -1.131992
H       1.421733    3.131970    0.061723
H       3.373897    1.844536    0.539574
H       3.214669   -0.581076   -0.243763
H       2.862628   -0.481536    1.461929
H      -1.185397   -2.897067   -0.125128
