16

C      -0.123708    1.465182    0.005708
O       0.105199    0.052143    0.055943
C       0.669751   -0.511499   -1.077174
C       0.471349   -2.048985   -1.139922
O      -0.233596   -1.924639   -2.412662
C      -0.170667   -0.551586   -2.368345
N      -0.647149    0.324432   -3.125501
C       2.117250   -0.108731   -1.352320
O       2.751410    0.647854   -0.669683
H       0.819377    2.017240   -0.011275
H      -0.728886    1.732643   -0.866550
H      -0.671558    1.705931    0.918482
H       1.361873   -2.672539   -1.242135
H      -0.184316   -2.412467   -0.347443
H      -1.193173   -0.086084   -3.885889
H       2.552914   -0.597754   -2.253553
