18

O       0.052159    1.459879   -0.137814
C       0.021632    0.053921   -0.157337
C      -1.409196   -0.517061    0.011241
C      -1.431448   -2.056851   -0.082596
C      -2.846345   -2.654859   -0.018674
C      -2.808710   -4.167871   -0.002770
O      -3.366356   -4.877999   -0.797230
C      -1.960381   -0.049378    1.286550
N      -2.351815    0.332438    2.305620
H      -0.171649    1.757059    0.751634
H       0.396645   -0.251483   -1.138866
H       0.678423   -0.388121    0.606844
H      -2.028469   -0.091499   -0.787881
H      -0.954026   -2.340111   -1.027419
H      -0.814374   -2.473063    0.722950
H      -3.334492   -2.325424    0.909525
H      -3.459844   -2.329536   -0.863730
H      -2.201207   -4.600450    0.827071
