19

C      -0.026011    1.463602    0.136113
N      -0.074163    0.014104   -0.062521
C       0.649170   -0.485097   -1.176081
C       2.236142   -0.436386   -1.409864
C       1.856246   -1.529713   -2.422531
C       0.782716   -2.025761   -1.432489
O       1.059673   -0.784998   -3.394909
C       0.222400   -0.063090   -2.573583
N      -0.670190    0.749168   -2.932127
H       0.994877    1.861854    0.263748
H      -0.486007    1.953851   -0.723304
H      -0.604109    1.714969    1.029363
H       0.223740   -0.467120    0.778252
H       2.686926    0.475042   -1.806598
H       2.785172   -0.811110   -0.543500
H       2.559956   -2.170157   -2.947082
H       1.200707   -2.553286   -0.571980
H      -0.080755   -2.554496   -1.840564
H      -0.709922    0.813872   -3.951162
