19

C      -0.136801    1.563556    0.041760
C       0.011904    0.046736   -0.005253
C       0.973909   -0.504305   -1.073378
C       2.369902    0.017197   -0.667533
C       2.775041   -1.326732   -0.118744
C       2.287430   -0.250446    0.829155
C       0.805525   -0.612767    1.152544
O       0.700914   -2.002685    0.792222
C       1.392617   -1.917264   -0.447092
H       0.832843    2.063916    0.124171
H      -0.629089    1.937590   -0.862099
H      -0.746089    1.870271    0.898928
H      -0.971321   -0.430936   -0.066277
H       0.678138   -0.472990   -2.120073
H       2.966705    0.793500   -1.127936
H       3.736783   -1.819289   -0.057657
H       2.956533    0.219944    1.535669
H       0.462765   -0.458578    2.174354
H       1.291038   -2.833030   -1.024497
