17

O      -0.010126    0.036886    0.124833
C      -0.057579    1.237772    0.033027
C      -1.288860    2.077339   -0.097365
C      -1.413151    3.218114    0.904809
C      -0.850571    3.494686   -0.454043
C       0.676094    3.531538   -0.602725
C       1.478929    4.086968    0.590463
O       1.643569    2.752989    1.136756
C       1.173673    2.161039   -0.104553
H      -2.188181    1.608414   -0.475947
H      -2.424040    3.554202    1.106654
H      -0.757483    3.209593    1.767178
H      -1.443999    4.083253   -1.143572
H       0.977767    3.856533   -1.598605
H       2.448128    4.521587    0.316413
H       0.957239    4.757342    1.280941
H       1.980032    1.654272   -0.645318
