23

O      -0.027204    1.439479   -0.063909
C       0.014629    0.012087    0.010710
C       0.866283   -0.452204    1.207728
C       0.378094    0.040644    2.582003
C      -0.772479   -0.784638    3.126921
C      -1.976322   -0.146109    3.778231
C      -2.106672   -0.792419    2.419446
C      -2.311612    0.026345    1.158160
C      -1.447024   -0.456945   -0.020880
H       0.878827    1.763984   -0.049898
H       0.496274   -0.383742   -0.899260
H       0.928949   -1.548087    1.198680
H       1.891292   -0.092724    1.033916
H       1.209268    0.013364    3.296885
H       0.090696    1.093329    2.490634
H      -0.464058   -1.741396    3.542795
H      -2.427239   -0.631807    4.637072
H      -2.004620    0.938975    3.817770
H      -2.613288   -1.755012    2.403218
H      -3.369220   -0.019171    0.872028
H      -2.093989    1.083262    1.338921
H      -1.873529   -0.084907   -0.959435
H      -1.464360   -1.552316   -0.077583
