15

N      -0.116985    1.280107   -0.371770
C      -0.132924   -0.083287   -0.152039
C      -1.136028   -1.010773   -0.044055
C      -2.619503   -0.795668   -0.186477
C      -2.946099    0.206950   -1.204050
N      -3.149019    1.029594   -1.990993
C      -0.477661   -2.251667    0.271962
C       0.846800   -1.989697    0.333689
O       1.070614   -0.657678    0.071405
H       0.774024    1.607489   -0.720994
H      -0.884728    1.609486   -0.944564
H      -3.108066   -1.735693   -0.466544
H      -3.088450   -0.477162    0.755499
H      -0.950795   -3.209363    0.428055
H       1.725491   -2.576420    0.535741
