18

C       0.032418    1.471652    0.069748
C      -0.028436   -0.032676   -0.038608
C       0.613680   -0.667764   -1.287182
O       0.125566   -2.024194   -1.264813
C      -0.690328   -2.119411   -0.088526
C       0.235501   -2.008510    1.129026
O       0.628431   -0.622184    1.105442
C      -1.390335   -0.754930   -0.040424
H       1.071300    1.815663    0.073503
H      -0.484084    1.940677   -0.772798
H      -0.437035    1.804589    0.999300
H       0.308579   -0.181030   -2.222912
H       1.706896   -0.655608   -1.213548
H      -1.294986   -3.023656   -0.150306
H      -0.267991   -2.237268    2.077813
H       1.112895   -2.655436    1.021467
H      -1.961682   -0.569307    0.871451
H      -1.998678   -0.562062   -0.926047
