25

C       0.025691    1.566514    0.201505
O       0.233209    0.189492    0.003577
C       0.684324   -0.524867    1.150134
C      -0.451515   -0.767443    2.150096
C       1.298799   -1.832095    0.661003
C       0.472681   -2.747984   -0.288019
C       1.777925   -3.041483   -1.080720
C       1.714380   -3.130122   -2.597607
C       2.407831   -1.780294   -0.424330
H       0.929582    2.062707    0.589604
H      -0.220324    1.998683   -0.772150
H      -0.803547    1.778062    0.892525
H       1.475803    0.067539    1.643675
H      -1.244859   -1.362471    1.687305
H      -0.078903   -1.308970    3.025570
H      -0.889239    0.170292    2.503931
H       1.642405   -2.395929    1.535164
H      -0.061225   -3.595671    0.149561
H      -0.226211   -2.153955   -0.883764
H       2.256193   -3.942022   -0.677230
H       1.239982   -2.237835   -3.021531
H       2.715958   -3.215132   -3.035001
H       1.135285   -4.002167   -2.922857
H       2.278347   -0.898832   -1.058693
H       3.449310   -1.837489   -0.096023
