14

O       0.083879    0.001917   -0.474459
C       0.001283    1.133598   -0.119396
C      -1.159816    2.040371    0.309951
C      -0.115789    3.119763    0.760185
C      -0.047341    3.328001    2.195626
N      -0.011288    3.495226    3.338578
C       1.062350    2.252561    0.135877
C       2.228712    1.938436    0.920107
C       3.182768    1.657393    1.593803
H      -1.791048    2.357367   -0.524402
H      -1.794120    1.628771    1.097268
H      -0.230975    4.085344    0.265654
H       1.344667    2.684547   -0.832669
H       4.025186    1.412329    2.192740
