17

C      -0.062025    1.502815   -0.029793
C      -0.004813   -0.000385    0.009200
C       0.050320   -0.759430   -1.148592
N       0.093432   -2.097336   -1.200352
C       0.081255   -2.732783   -0.034240
O       0.125264   -4.084267   -0.069195
C       0.030801   -2.101419    1.205179
C      -0.015021   -0.707858    1.235902
N      -0.122279   -0.028142    2.435321
H       0.806558    1.966311    0.459452
H      -0.076772    1.862331   -1.061936
H      -0.957854    1.891447    0.470774
H       0.060403   -0.251449   -2.111480
H       0.157158   -4.314283   -1.008181
H       0.025458   -2.690621    2.114943
H       0.200693    0.926287    2.443871
H       0.140030   -0.542504    3.261953
