19

C      -0.342756    1.503259    0.036290
C       0.139808    0.045996    0.065381
C       0.783472   -0.361982   -1.228804
C       0.049007   -0.937661   -2.391320
N       0.994674   -1.817028   -1.694756
C       2.353077   -1.422675   -2.229394
C       2.165647   -0.030013   -1.664434
N       2.899594    0.958667   -1.367307
O       4.198485    0.788552   -1.885776
H       0.493078    2.183213   -0.151224
H      -1.087194    1.657532   -0.751718
H      -0.799369    1.778589    0.991443
H       0.862174   -0.088485    0.878903
H      -0.697316   -0.631833    0.267037
H      -0.990161   -1.204008   -2.219326
H       0.273174   -0.612510   -3.405398
H       3.151493   -1.975133   -1.727793
H       2.457763   -1.534481   -3.312939
H       4.646949    1.582029   -1.574595
