20

C      -0.045373    1.601119   -0.210609
N      -0.169907    0.153447   -0.316661
C      -0.126006   -0.580957    0.945199
C      -1.406135   -0.425505    0.202929
C       1.395502    2.014932   -0.146151
C       2.610004    1.543363   -0.988684
C       3.113134    2.390266    0.201198
C       2.010394    3.438210   -0.076308
O       2.168298    1.669397    1.084816
H      -0.502298    2.056055   -1.098363
H      -0.563133    2.012688    0.675384
H       0.415694   -1.521724    0.920852
H       0.001935   -0.007371    1.859995
H      -2.149201    0.250174    0.624155
H      -1.817267   -1.249171   -0.373621
H       2.822870    0.476813   -0.927994
H       2.721881    1.949644   -1.997371
H       4.128083    2.536642    0.569935
H       2.067476    4.019391   -1.000594
H       1.708218    4.032052    0.787540
