16

C      -0.338663    1.417850    0.028684
N       0.030352    0.006899    0.023211
C       0.386949   -0.601552    1.200518
O       0.363195   -0.077745    2.292698
C       0.038951   -0.696586   -1.192476
C      -0.353554   -2.005052   -1.418760
N      -0.144503   -2.230149   -2.739474
N       0.330465   -1.160964   -3.396976
C       0.450917   -0.223304   -2.462321
H       0.419486    2.029080   -0.473553
H      -1.297907    1.559807   -0.477284
H      -0.414396    1.731389    1.069553
H       0.708541   -1.646295    1.034888
H      -0.761851   -2.756377   -0.763292
H      -0.313988   -3.080238   -3.249554
H       0.820074    0.755890   -2.726210
