10

O       0.010554    1.378653   -0.229863
C       1.275336    0.786648    0.052247
C       0.053540   -0.015058    0.062470
C       0.541738   -0.775674   -1.241270
O       0.770243    0.194957   -2.258815
C       1.763508    0.026070   -1.251527
H       1.879864    1.197190    0.851512
H      -0.554298   -0.400035    0.871883
H       0.344858   -1.800909   -1.529286
H       2.778965   -0.203597   -1.549723
