13

O       0.016024    0.168773    0.801805
C      -0.027680    1.220251    0.223453
C      -1.311616    2.010072   -0.019086
O      -1.154557    2.935884   -1.075201
C      -0.233109    3.965383   -0.778157
C       1.184107    3.417194   -0.629436
O       2.177016    4.086585   -0.719185
C       1.267689    1.890481   -0.326479
O       2.287955    1.275263   -0.461595
H      -2.110385    1.318600   -0.297808
H      -1.607555    2.508186    0.920290
H      -0.255587    4.681330   -1.603244
H      -0.506453    4.504447    0.145324
