16

N      -0.101629    1.482382   -0.179307
C      -0.074312    0.061902   -0.046671
C       0.367042   -0.741041   -1.319706
O       1.678799   -1.211052   -1.421002
C      -0.838564   -1.722984   -1.146963
C      -1.287694   -0.925301    0.086488
O      -0.680352   -1.494932    1.293318
C       0.386078   -0.627183    1.247438
O       1.283177   -0.536412    2.024833
H      -0.124666    1.950202    0.720958
H       0.727214    1.806916   -0.667457
H       0.212453   -0.095543   -2.189011
H       1.883739   -1.754461   -0.651678
H      -1.532916   -1.705200   -1.988950
H      -0.575344   -2.758308   -0.919689
H      -2.322251   -0.634960    0.251927
