20

C       0.240343    0.529714   -0.808077
C       0.066760   -0.007360    0.613023
O       0.044782    1.052650    1.567224
C      -1.248727   -0.763145    0.830409
C      -1.394995   -2.039450    0.013196
C      -2.773356   -2.502652   -0.336229
N      -1.903541   -1.958768   -1.383904
C      -0.368626   -3.034452    0.223956
C       0.483276   -3.855620    0.437534
H       1.184592    1.079393   -0.897474
H       0.261412   -0.281448   -1.541723
H      -0.573550    1.218767   -1.060149
H       0.895289   -0.697760    0.834001
H       0.855402    1.560619    1.463262
H      -1.317455   -1.005094    1.896557
H      -2.086475   -0.092504    0.601108
H      -2.971454   -3.566920   -0.414232
H      -3.604939   -1.903826    0.027051
H      -2.162935   -0.993959   -1.577961
H       1.234147   -4.586045    0.611759
