22

C      -0.088179    1.445513    0.310664
C       0.011883   -0.039800    0.005699
C       1.088046   -0.479251   -0.960093
C       1.232748   -0.785933    0.508430
C      -1.290074   -0.772510    0.056496
C      -1.794326   -1.713406   -0.966616
N      -2.491638   -0.420852   -0.826311
C      -3.374118   -0.586042    0.380555
C      -2.169340   -0.871054    1.312175
H       0.894944    1.923190    0.258184
H      -0.749995    1.938119   -0.408607
H      -0.487161    1.626504    1.315188
H       0.889694   -1.305849   -1.631893
H       1.716949    0.294889   -1.386510
H       1.963623   -0.230702    1.086859
H       1.105538   -1.816888    0.821477
H      -1.249418   -1.794411   -1.901042
H      -2.309011   -2.624987   -0.663749
H      -3.890153    0.351245    0.598246
H      -4.118406   -1.382120    0.268371
H      -2.142374   -1.825154    1.847243
H      -1.991847   -0.067144    2.028548
