18

C      -0.029237    1.361719   -0.334388
C       0.033474   -0.097507    0.156087
C       0.996122   -0.251596    1.340474
C      -1.372011   -0.531090    0.569709
O      -1.894333   -0.173000    1.605783
N      -2.028426   -1.340244   -0.342850
C      -3.325479   -1.799642   -0.175261
N      -3.859500   -2.538024   -1.060317
H       0.966931    1.707225   -0.625994
H      -0.692921    1.469410   -1.198086
H      -0.401394    2.010081    0.464045
H       0.375611   -0.731008   -0.672154
H       0.625274    0.314530    2.198409
H       1.093283   -1.298380    1.644095
H       1.990017    0.120411    1.074908
H      -1.563260   -1.628192   -1.191828
H      -3.765889   -1.450067    0.760281
H      -4.808188   -2.786689   -0.786068
