14

O       0.411814    1.031802    0.727744
C      -0.046962   -0.091376    0.030135
C      -1.573344   -0.125919   -0.202708
C      -1.730246   -0.662324   -1.620363
O      -1.322356    0.292516   -2.600107
C      -0.423026   -0.791441   -2.296988
C       0.615480   -0.253756   -1.343338
O       1.759964    0.045195   -1.574478
H       1.308563    1.200332    0.404733
H       0.228557   -1.024927    0.560711
H      -2.083200   -0.757008    0.528784
H      -1.985884    0.884313   -0.136327
H      -2.576411   -1.283061   -1.901169
H      -0.186643   -1.471091   -3.109606
