25

C      -0.257551    1.564637    0.397206
C       0.134690    0.148448   -0.042611
C       0.882440   -0.602529    1.041620
C       0.147569   -1.370170    2.118521
C       1.007152   -2.112538    1.114475
C       0.324456   -2.981224    0.071469
C       2.343361   -2.648196    1.612591
C       2.252527   -3.970656    2.369844
O       3.552362   -4.269269    2.861893
H       0.626899    2.157158    0.656206
H      -0.791990    2.094138   -0.397872
H      -0.905083    1.536025    1.279830
H      -0.769581   -0.399128   -0.329760
H       0.755905    0.207476   -0.946457
H       1.768761   -0.070695    1.384451
H       0.491355   -1.294974    3.145340
H      -0.930938   -1.456945    2.020554
H      -0.615738   -2.547033   -0.275949
H       0.969063   -3.123364   -0.804452
H       0.090262   -3.973875    0.471272
H       3.035586   -2.776392    0.770089
H       2.806162   -1.918191    2.286706
H       1.525540   -3.874867    3.192534
H       1.891643   -4.771704    1.706820
H       3.513374   -5.115038    3.317456
