21

C      -0.007526    1.512671    0.033510
C       0.021768   -0.017129    0.061387
C      -1.404000   -0.546027   -0.110003
O       0.884951   -0.528870   -0.997085
C       1.883640   -1.257457   -0.263121
C       2.269313   -0.305039    0.892602
C       0.780554   -0.616597    1.277427
O       0.187447   -0.298959    2.492059
C       1.070463   -2.072429    0.769395
H       0.987872    1.951667    0.112136
H      -0.449823    1.855210   -0.906614
H      -0.617257    1.890540    0.859703
H      -1.824894   -0.172219   -1.048036
H      -1.445518   -1.635626   -0.137736
H      -2.034036   -0.197844    0.713996
H       2.604112   -1.698415   -0.948017
H       2.979662   -0.751636    1.592568
H       2.562520    0.713906    0.642553
H       0.701844   -0.696925    3.201127
H       0.252039   -2.692278    0.405099
H       1.702976   -2.633760    1.461369
