17

C      -0.012123    1.393494   -0.200167
O      -0.025305   -0.014630   -0.153764
C      -1.299857   -0.537215    0.133340
C      -1.192025   -2.021254    0.232180
O      -1.054096   -2.795890   -0.982355
C      -2.127718   -3.127620   -0.115091
C      -1.548728   -4.090906    0.930174
C      -0.601801   -2.914472    1.329655
O       0.133407   -2.725808    2.249785
H       1.012650    1.699690   -0.420361
H      -0.678000    1.781971   -0.986957
H      -0.318613    1.835865    0.760787
H      -1.682423   -0.136779    1.087949
H      -2.026162   -0.276975   -0.654875
H      -3.139998   -3.050197   -0.493120
H      -2.214741   -4.342994    1.760863
H      -1.091677   -4.994980    0.524498
