17

O       0.491279    1.025274    0.602316
C      -0.001892   -0.153237    0.030836
C      -1.411475   -0.079311   -0.593061
C      -1.406513   -1.256049   -1.573483
O      -0.013525   -1.549243   -1.856149
C       0.808969   -0.679454   -1.166960
O       1.130067    0.488174   -1.959806
C       2.110741    0.364950   -2.882073
O       2.407938    1.250713   -3.623688
H       0.691858    1.627928   -0.125028
H       0.022718   -0.916019    0.816064
H      -2.204907   -0.149253    0.152413
H      -1.515300    0.874298   -1.119315
H      -1.849322   -2.160130   -1.142389
H      -1.915756   -1.037611   -2.516073
H       1.739252   -1.195775   -0.912130
H       2.596660   -0.627738   -2.861019
