16

N      -0.112209    1.319534    0.093380
C      -0.014382    0.057741   -0.020996
N       1.124105   -0.767434   -0.046211
C       0.825178   -2.116288   -0.037728
O       1.604902   -3.038783   -0.025411
C      -0.676514   -2.172159   -0.049085
C      -1.367864   -3.322333   -0.734124
C      -1.384517   -3.225943    0.769443
N      -1.091737   -0.801274   -0.156992
H       0.799589    1.762276    0.173677
H       2.067578   -0.415705   -0.030695
H      -2.280459   -3.090905   -1.271891
H      -0.728270   -4.069474   -1.190743
H      -0.758517   -3.906243    1.336285
H      -2.310125   -2.933532    1.254246
H      -1.977057   -0.480861    0.200764
