19

C       0.446822    1.422592    0.185463
C      -0.278329    0.111974   -0.149140
C       0.344333   -0.566183   -1.346431
O       1.581128   -1.258510   -1.159948
C       0.428657   -2.029011   -1.589746
C      -0.009196   -3.071843   -0.573289
O       0.956350   -4.096505   -0.454684
C       0.481961   -2.493790   -2.957413
C       0.489108   -2.884734   -4.093771
H       1.498395    1.232518    0.419981
H       0.411661    2.121557   -0.656950
H      -0.012075    1.913478    1.048217
H      -0.257324   -0.551345    0.719239
H      -1.332735    0.313896   -0.376707
H       0.333815    0.044338   -2.252644
H      -0.203709   -2.589296    0.392624
H      -0.933854   -3.550537   -0.909263
H       1.793229   -3.666774   -0.242577
H       0.508636   -3.235540   -5.096067
