13

C      -0.060722    1.532711    0.010927
C       1.424084    1.877219   -0.001579
C       2.196934    0.769139   -0.014867
C       1.285425   -0.360070   -0.012001
C      -0.021611    0.033961    0.002685
C      -0.719779   -1.191482    0.003004
N       0.101799   -2.225148   -0.010358
O       1.409232   -1.683972   -0.020163
H      -0.554770    1.953522    0.896149
H      -0.571710    1.962745   -0.860133
H       1.784336    2.897846    0.000306
H       3.276292    0.721884   -0.025540
H      -1.781839   -1.394231    0.012198
