20

C      -0.047846    1.514760    0.029136
C      -0.078433    0.023873   -0.042184
C      -0.031729   -0.760812   -1.123598
C       0.020520   -2.201749   -0.737543
N       1.241701   -2.533322    0.075134
C      -0.057673   -2.262433    0.738389
C      -0.745780   -3.333617    1.537741
C      -0.067642   -0.807573    1.242964
O       1.052606   -0.519069    2.065204
H       0.790506    1.843360    0.653559
H       0.049324    1.970728   -0.959610
H      -0.958793    1.906488    0.500737
H       0.016866   -0.417242   -2.151012
H      -0.393128   -2.978689   -1.372260
H       1.387790   -3.542478    0.057650
H      -0.684006   -4.307098    1.039356
H      -0.288257   -3.427786    2.529325
H      -1.805690   -3.097242    1.682088
H      -0.950116   -0.604281    1.863529
H       1.802015   -0.910601    1.591811
