16

C      -0.098646    1.514272    0.132544
C       0.062264   -0.004538    0.057012
N       0.762352   -0.548213    1.207799
N       2.040572   -0.880542    1.171165
C       2.317825   -1.242060    2.426408
C       1.147049   -1.104266    3.196847
N       0.959070   -1.302188    4.560833
N       0.169281   -0.661528    2.403953
H       0.877940    2.005491    0.161449
H      -0.643405    1.876397   -0.744602
H      -0.656878    1.795158    1.029061
H      -0.914165   -0.494462    0.004889
H       0.647619   -0.299048   -0.815768
H       3.302412   -1.577610    2.709689
H       1.473014   -2.090189    4.929695
H      -0.020709   -1.369202    4.802955
