23

C       0.148763    1.663818    0.042641
C      -0.109245    0.159962   -0.100155
C       0.650675   -0.470166   -1.262896
C       2.199246   -0.671391   -0.995140
C       1.852113   -2.110729   -0.701408
C       1.932358   -3.089433    0.193149
C       0.672081   -3.949335    0.107900
C      -0.363621   -3.011311   -0.601854
C       0.528481   -2.045046   -1.408112
H       1.211135    1.874479    0.205352
H      -0.159825    2.204618   -0.858976
H      -0.405303    2.082773    0.888484
H       0.163354   -0.350874    0.832397
H      -1.184522   -0.010847   -0.240319
H       0.429400    0.074246   -2.186844
H       2.786632   -0.535430   -1.909203
H       2.659865   -0.088049   -0.192909
H       2.708674   -3.247308    0.933179
H       0.839444   -4.869427   -0.470481
H       0.326157   -4.269209    1.097161
H      -1.080454   -3.564058   -1.215883
H      -0.935532   -2.469071    0.158387
H       0.579024   -2.317216   -2.469893
