19

N      -0.149442   -1.153571   -0.151573
C      -0.107873   -0.002348   -0.058805
C      -0.030500    1.452185    0.053780
C       1.397706    1.994253   -0.165171
C       1.460355    3.508868   -0.028186
C       1.250030    4.159843    1.371749
C       2.373455    5.173599    1.024293
C       2.849096    4.205356   -0.091976
H      -0.718916    1.893908   -0.676508
H      -0.396723    1.743155    1.045184
H       2.072438    1.527347    0.562035
H       1.748171    1.690160   -1.158389
H       0.781815    3.972692   -0.755236
H       0.260333    4.555470    1.613184
H       1.557472    3.479502    2.173697
H       1.967265    6.100795    0.610379
H       3.085640    5.429253    1.811615
H       3.641555    3.538564    0.263923
H       3.160121    4.633159   -1.048019
