14

C      -0.205069    1.538332    0.041989
C       0.102957    0.080725    0.022498
O      -0.748188   -0.854296    0.690383
C       0.635380   -0.866745    1.002899
C       1.376848   -1.664999   -0.154929
O       0.403312   -2.071859   -1.116357
C       0.830620   -0.718862   -1.143357
C       2.636033   -2.324608   -0.072535
N       3.665919   -2.837109    0.050534
H       0.671989    2.122286   -0.254990
H      -1.018491    1.770321   -0.653945
H      -0.509268    1.848608    1.044597
H       0.958679   -0.769531    2.031512
H       1.273257   -0.328929   -2.052049
