16

C      -0.038363    1.540032    0.047018
C      -0.010105    0.011047    0.024953
C       0.703707   -0.534019   -1.230128
C       0.752884   -1.984424   -1.290084
C       0.784640   -3.192096   -1.324665
C       0.822040   -4.621611   -1.366554
O       1.324514   -5.287322   -2.243500
C       0.173646   -5.272383   -0.209566
N      -0.332006   -5.788954    0.692931
H       0.974547    1.957318    0.044297
H      -0.566151    1.941378   -0.825039
H      -0.547388    1.907276    0.942422
H       0.498765   -0.372330    0.915743
H      -1.029545   -0.388150    0.053443
H       0.205745   -0.163349   -2.136553
H       1.730985   -0.147349   -1.276043
