9

C      -0.431261    1.305867   -0.127586
C       0.252857   -0.010270    0.131389
O       0.698721   -0.368903    1.196047
C       0.389789   -0.967737   -1.062262
O      -0.016113   -0.715643   -2.165837
H       0.100066    1.853245   -0.913326
H      -1.442704    1.130694   -0.509234
H      -0.467576    1.895482    0.788365
H       0.903299   -1.915588   -0.795320
