17

C       0.186683    0.670987    1.137781
C       0.057087   -0.532356    0.328396
C      -0.033347   -1.530717   -0.340368
C      -0.200219   -2.735579   -1.162329
N      -1.591478   -3.143620   -1.403288
C      -2.312896   -3.524292   -0.196325
C      -1.973713   -4.951042    0.212056
O      -2.047527   -5.374266    1.335380
H       0.993276    1.312871    0.766861
H      -0.736779    1.260313    1.124182
H       0.409115    0.427349    2.182345
H       0.279418   -2.589904   -2.137257
H       0.323359   -3.578254   -0.692034
H      -2.077685   -2.385587   -1.868156
H      -2.160311   -2.859066    0.667104
H      -3.388072   -3.522605   -0.422448
H      -1.664226   -5.592212   -0.645559
