16

C      -0.086072    1.535202    0.142099
C       0.019310    0.022807   -0.032627
C       0.731158   -0.419651   -1.281799
N       1.200331    0.439546   -2.114745
C       1.848455   -0.021602   -3.251990
N       2.331643    0.768527   -4.110336
O       1.971113   -1.412011   -3.454671
N       1.466784   -2.331122   -2.559929
C       0.877257   -1.851458   -1.527196
H       0.904060    1.995614    0.176795
H      -0.624902    1.989516   -0.692642
H      -0.614389    1.771165    1.069564
H       0.536258   -0.436324    0.822987
H      -0.977568   -0.442321   -0.037628
H       2.766241    0.245488   -4.871013
H       0.486479   -2.589697   -0.833834
