18

C      -0.120705    1.437984    0.036437
N       0.032858    0.010066    0.236937
C      -1.133823   -0.861580    0.068928
C      -0.480534   -2.265480    0.060093
N       0.954855   -2.028145   -0.158101
C       1.138451   -0.759023   -0.038082
C       2.539952   -0.185608   -0.131142
N       3.448246   -1.133085   -0.455923
O       2.809067    0.987996    0.062954
H       0.843343    1.924738    0.160836
H      -0.516627    1.663273   -0.966709
H      -0.828846    1.834236    0.772495
H      -1.855677   -0.717508    0.879069
H      -1.643375   -0.630381   -0.880196
H      -0.614216   -2.778054    1.021597
H      -0.888389   -2.921917   -0.713704
H       3.140761   -2.090836   -0.526797
H       4.421602   -0.883411   -0.487906
