11

N       0.128902    1.371977    0.176130
C      -0.060475    0.006923    0.045608
C      -1.137429   -0.792416   -0.021041
N      -0.628605   -2.109762   -0.007145
C       0.735361   -2.099492    0.033771
O       1.533758   -2.995965    0.031392
O       1.086110   -0.746066    0.079456
H       0.931233    1.701360   -0.347869
H      -0.695618    1.906927   -0.061051
H      -2.188278   -0.571560   -0.059038
H      -1.154955   -2.962084   -0.067516
