18

O      -0.252657    1.561369   -0.483571
C      -0.072650    0.203637   -0.149112
C      -1.408802   -0.500816    0.057939
C      -2.243075   -0.659894   -1.221746
O      -1.884576   -2.059789   -1.303592
C      -1.360278   -2.046453    0.036046
O      -2.134371    0.148977    1.102877
C      -1.771069   -0.126504    2.376438
N      -2.241012    0.561643    3.322593
H      -0.816347    1.949624    0.196491
H       0.457706   -0.266148   -0.983471
H       0.549969    0.080468    0.753639
H      -3.316293   -0.515190   -1.051104
H      -1.916647   -0.088898   -2.094923
H      -0.374619   -2.521479    0.103547
H      -2.045610   -2.515712    0.754930
H      -1.080256   -0.974710    2.466851
H      -1.899580    0.209984    4.214804
