15

N      -0.032586    1.334738    0.093790
C      -0.075454   -0.011964    0.022651
N      -1.121217   -0.752135   -0.009443
C      -0.674241   -2.137580   -0.024175
C       0.851986   -2.105839   -0.001602
N       1.747341   -2.999110   -0.002050
N       1.161781   -0.723907    0.019974
C       2.442284   -0.210325   -0.018432
O       2.706790    0.973667   -0.052161
H       0.856798    1.791242   -0.045820
H      -0.897814    1.826956   -0.045804
H      -1.056702   -2.692608    0.842608
H      -1.029961   -2.666052   -0.918504
H       1.332200   -3.929260   -0.021952
H       3.194600   -1.011596   -0.019000
