19

C      -0.278230    1.554836    0.105792
C       0.067068    0.064102    0.070920
C       0.468801   -0.422228   -1.326547
C       0.843793   -1.889136   -1.362459
C       1.562918   -2.435567   -2.615365
C       2.714918   -2.671243   -1.662122
N       3.869852   -3.146855   -1.770115
O       2.049391   -2.173250   -0.561142
H       0.574759    2.165890   -0.209374
H      -1.114790    1.785516   -0.563356
H      -0.560609    1.873278    1.113779
H       0.889143   -0.145506    0.764619
H      -0.791429   -0.521945    0.424725
H      -0.358399   -0.266151   -2.033070
H       1.316105    0.168533   -1.698970
H       0.024274   -2.519916   -1.001895
H       1.144622   -3.339753   -3.059969
H       1.762172   -1.701876   -3.399152
H       4.355730   -3.142226   -0.871473
