22

C       0.347691    1.425867    0.227273
N       0.151602   -0.003964    0.059199
C       0.069081   -0.764874    1.288813
C       0.022560   -0.516568   -1.209781
O       0.058231    0.202633   -2.197603
C      -0.190903   -2.018237   -1.348770
C      -1.638297   -2.574565   -1.130519
C      -1.440220   -3.470467   -2.381500
C      -0.245404   -2.570629   -2.795554
H       1.274868    1.624831    0.779991
H       0.404105    1.882001   -0.759258
H      -0.484641    1.870038    0.789004
H      -0.739669   -0.380962    1.925447
H      -0.130000   -1.815820    1.092915
H       1.004472   -0.689253    1.860309
H       0.531373   -2.574517   -0.744508
H      -1.854907   -3.064203   -0.177420
H      -2.387470   -1.795945   -1.300125
H      -1.122337   -4.481021   -2.108913
H      -2.278082   -3.548630   -3.077916
H      -0.533157   -1.774467   -3.483961
H       0.654084   -3.060075   -3.175080
