20

C       0.059458    1.417514    0.306289
C      -0.033698   -0.103635    0.406693
O       0.319756   -0.545452    1.731612
C      -1.395001   -0.627197    0.002140
C      -1.697269   -0.976228   -1.438512
C      -1.622117   -2.065510   -0.408320
C      -0.529134   -3.117871   -0.498558
N       0.205200   -3.276183    0.640554
O      -0.384575   -3.808316   -1.489357
H       1.046954    1.760978    0.625167
H      -0.115272    1.749685   -0.721280
H      -0.693697    1.896446    0.944118
H       0.732166   -0.555104   -0.233301
H      -0.343864   -0.202920    2.341235
H      -2.210672   -0.167372    0.560223
H      -2.662625   -0.706218   -1.850829
H      -0.879261   -0.923957   -2.150156
H      -2.567797   -2.501047   -0.096173
H       0.244460   -2.528092    1.322780
H       0.979145   -3.920847    0.588533
