20

C      -0.193182    1.541132    0.096560
C      -0.148583    0.047892    0.054814
C      -0.266068   -0.758397   -1.005612
C      -0.127544   -2.192488   -0.649070
C      -0.676882   -3.284387   -1.491900
N       0.779711   -3.076203   -1.422007
C      -0.071829   -2.229111    0.879713
C       0.136588   -0.754953    1.315607
O       1.437380   -0.467266    1.831609
H       0.706010    1.932497    0.585308
H      -0.269858    1.978593   -0.902414
H      -1.047685    1.892934    0.689087
H      -0.423896   -0.431110   -2.029814
H      -1.028797   -4.199177   -1.021012
H      -1.204111   -3.016625   -2.404879
H       1.098749   -2.593358   -2.259961
H      -1.014331   -2.611897    1.283870
H       0.733525   -2.868992    1.246683
H      -0.535359   -0.480213    2.135968
H       2.071712   -0.673312    1.135127
