17

O      -0.557579    0.416536   -0.456793
C      -0.176844    1.542783   -0.276079
C       1.248997    1.912899    0.118489
C       1.925176    2.568381   -1.069565
C       2.046639    3.886662   -0.920899
C       1.519663    4.371003    0.405879
C       1.324428    3.042589    1.204720
C       0.215702    3.060810    2.148773
C      -0.703811    3.076680    2.923242
H      -0.847559    2.416119   -0.434862
H       1.740780    0.992899    0.446276
H       2.206518    1.999104   -1.947688
H       2.460641    4.560290   -1.662993
H       2.202840    5.053182    0.922314
H       0.571894    4.910345    0.287699
H       2.249830    2.859895    1.762846
H      -1.514580    3.085095    3.609081
