19

C      -0.087444    1.490071    0.032144
C       0.122038    0.002783   -0.023385
O      -0.471294   -0.778905    1.018918
C       0.975754   -0.779626    0.886062
C       1.489605   -1.952852    0.120757
C       0.983766   -1.948786   -1.113183
C       0.099037   -0.737523   -1.381728
C      -1.317826   -1.119305   -1.817520
O       0.701575    0.147607   -2.332165
H       0.645287    2.004449   -0.593009
H      -1.085887    1.755816   -0.332202
H       0.001617    1.840792    1.063226
H       1.511581   -0.350029    1.727285
H       2.145527   -2.704469    0.542943
H       1.135650   -2.717014   -1.865266
H      -1.812779   -1.701915   -1.037845
H      -1.904619   -0.217664   -2.018591
H      -1.292271   -1.720424   -2.734398
H       0.686508   -0.286605   -3.191489
