16

O      -0.560852    0.712249    0.756353
C       0.089379    0.980139   -0.219267
C       1.356425    1.806964   -0.215391
C       1.267868    2.994696   -1.180373
N       2.569029    3.642994   -1.308069
C       2.531839    4.803958   -2.190689
C       3.843252    5.453774   -2.259785
N       4.870442    5.980121   -2.297025
H      -0.215053    0.615960   -1.229091
H       1.556455    2.133720    0.809563
H       2.184605    1.163880   -0.543164
H       0.971794    2.637268   -2.176062
H       0.472891    3.686455   -0.846091
H       2.905656    3.927343   -0.393157
H       2.257791    4.470863   -3.199667
H       1.787465    5.568631   -1.901737
