18

N      -0.110018    1.334543    0.088175
C      -0.016458    0.080403   -0.014789
C       1.252519   -0.764706   -0.031752
O       1.427843   -1.558509   -1.188687
C       0.461292   -2.589308   -1.358057
C      -0.802129   -2.089754   -2.032267
C      -2.159427   -2.431081   -1.440680
C      -1.608552   -1.050379   -1.303679
O      -1.173366   -0.671033   -0.017924
H       0.817946    1.758638    0.124842
H       2.128225   -0.112115    0.022971
H       1.236767   -1.400794    0.869858
H       0.943894   -3.350057   -1.978985
H       0.226354   -3.046216   -0.386443
H      -0.737804   -1.981365   -3.110524
H      -3.000107   -2.588024   -2.106574
H      -2.167893   -3.040765   -0.543555
H      -2.053932   -0.233502   -1.865534
