19

C       0.313122    1.478097   -0.017101
C       0.135253   -0.011768   -0.010149
C      -0.015318   -0.842710   -1.107345
N      -0.186067   -2.128440   -0.629071
C      -0.135816   -2.133464    0.738048
C       0.062867   -0.838288    1.151040
C      -0.066941   -0.586452   -2.562244
C       0.951655    0.261698   -3.232498
N       0.956522   -1.191517   -3.459745
H       1.287123    1.775282    0.390830
H       0.237280    1.886561   -1.027535
H      -0.450102    1.972080    0.595210
H      -0.319170   -2.936011   -1.212963
H      -0.238633   -3.049805    1.297086
H       0.146194   -0.506544    2.175409
H      -1.057044   -0.612542   -3.017012
H       0.667429    0.858881   -4.094070
H       1.737358    0.690472   -2.618544
H       1.684873   -1.602789   -2.878744
