20

C      -0.106699    1.509576    0.074580
C      -0.013529   -0.017622   -0.000222
C      -1.380313   -0.627404   -0.288555
C       1.165885   -0.483528   -0.911668
C       2.039835   -0.691802    0.349262
C       0.756242   -0.673801    1.224521
C       0.794318    0.067717    2.529530
O       0.241120   -0.286097    3.541240
H       0.865339    1.977715    0.259395
H      -0.484786    1.904439   -0.875017
H      -0.791918    1.833479    0.865816
H      -1.785067   -0.244179   -1.232900
H      -1.321502   -1.717778   -0.366292
H      -2.097074   -0.384885    0.504227
H       0.940158   -1.427239   -1.416354
H       1.521185    0.231799   -1.658481
H       2.650948   -1.594818    0.401384
H       2.683315    0.169184    0.557598
H       0.367030   -1.677419    1.413678
H       1.389101    1.011578    2.509775
