22

C      -0.182081    1.270487   -0.093976
C       1.126212    0.621423    0.120634
N      -0.134080   -0.202222   -0.093453
C       0.410308   -0.577360   -1.446941
C       1.768705    0.147367   -1.181285
C       2.287567    1.183984   -2.210303
C       3.502267    0.527441   -2.927985
C       3.529123   -0.930742   -2.424527
C       2.947345   -0.825142   -1.009409
H      -0.687692    1.676949    0.776957
H      -0.392597    1.793599   -1.024755
H       1.630957    0.643842    1.083360
H       0.495238   -1.663483   -1.535044
H      -0.198922   -0.198802   -2.276015
H       1.501007    1.463608   -2.917247
H       2.584311    2.105172   -1.697835
H       3.433159    0.592914   -4.017105
H       4.428524    1.036006   -2.640594
H       2.877722   -1.559267   -3.044762
H       4.527634   -1.375818   -2.451527
H       3.692047   -0.379890   -0.334836
H       2.648841   -1.784194   -0.575864
