20

C       0.199941    1.431620    0.326901
C       0.094186   -0.046536    0.046030
C      -1.018649   -0.862023    0.605493
N       0.338515   -0.981297    1.168185
C       1.095608   -2.137585    0.628449
C       0.971170   -2.087481   -0.926966
C       0.754300   -0.591582   -1.217235
C       2.488583   -2.044369    1.064915
C       3.642329   -1.977289    1.394415
H       1.247305    1.752977    0.327691
H      -0.330841    2.012121   -0.436323
H      -0.229674    1.673961    1.302080
H      -1.737266   -0.401442    1.277760
H      -1.422302   -1.683318    0.018429
H       0.662021   -3.061285    1.029348
H       1.854957   -2.496347   -1.418249
H       0.113034   -2.681604   -1.251640
H       0.155313   -0.420649   -2.117094
H       1.714332   -0.083217   -1.361961
H       4.656415   -1.916973    1.703309
