22

C       0.165543    1.559067   -0.056705
C       0.038091    0.046242    0.030468
O       0.681738   -0.523790   -1.109843
C       1.221611   -1.792454   -0.776106
C       1.463751   -1.771980    0.723810
C       1.697995   -3.070451    1.446383
N       2.185165   -0.534807    1.115112
C       0.707544   -0.601604    1.240427
C       0.035890   -0.507758    2.583662
H       1.218047    1.843167    0.015790
H      -0.231927    1.916557   -1.010411
H      -0.395273    2.043501    0.749509
H      -1.029019   -0.241370    0.042448
H       0.520740   -2.608033   -1.024337
H       2.137488   -1.930805   -1.361284
H       2.652851   -3.517030    1.145487
H       1.727814   -2.930208    2.531305
H       0.908429   -3.796217    1.222544
H       2.591610   -0.678808    2.038917
H       0.039852    0.524574    2.952080
H      -1.008560   -0.833887    2.526048
H       0.540364   -1.126671    3.331917
