20

C       0.263231    1.573261    0.024103
C       0.066908    0.065386    0.038278
C       0.912235   -0.810207   -0.944588
C       1.412561   -1.682484    0.238963
C       2.684694   -1.147124    0.904122
O       1.934298   -0.182892    1.678483
C       0.664362   -0.736324    1.232567
C      -0.215399   -1.136521    2.388227
H       1.309207    1.823427    0.220877
H      -0.020157    1.994888   -0.946379
H      -0.346730    2.063624    0.790934
H      -0.997378   -0.176994   -0.063639
H       0.320001   -1.348907   -1.687587
H       1.708982   -0.272368   -1.468402
H       1.265816   -2.760808    0.185389
H       3.199978   -1.863988    1.557656
H       3.422996   -0.670979    0.246248
H      -0.506732   -0.250792    2.964836
H      -1.128088   -1.626995    2.034485
H       0.309890   -1.818930    3.063380
