14

C      -0.078566    1.613105   -0.033613
C       1.447907    1.374655   -0.018583
O       1.199287    0.200041    0.836624
C      -0.000314    0.070209   -0.010139
C       0.646756   -0.306073   -1.364475
N       0.651107    0.787914   -2.365838
C       1.746019    0.684057   -1.370883
H      -0.416739    1.994781    0.928720
H      -0.540128    2.120076   -0.877793
H       2.175506    2.073540    0.391542
H      -0.768527   -0.578218    0.408707
H       0.758902   -1.338652   -1.670726
H       0.984927    0.411562   -3.252345
H       2.759308    0.463158   -1.682388
