19

O      -0.016086    1.396590    0.087479
C      -0.000618   -0.006623    0.042420
C       0.474983   -0.647163    1.405012
C      -0.834950   -1.334655    1.833856
C      -1.248252   -2.058033    0.521216
C      -1.441116   -0.597942    0.014510
C      -1.906397   -0.270488    1.463970
C       0.835247   -0.448954   -1.135275
O       1.377584    0.344366   -1.869592
H       0.522740    1.687736   -0.665653
H       1.300595   -1.357545    1.290569
H       0.795363    0.157016    2.070252
H      -0.833284   -1.843677    2.797578
H      -0.516075   -2.708025    0.033309
H      -2.202021   -2.583354    0.608528
H      -2.040465   -0.349299   -0.861324
H      -2.924435   -0.618451    1.652594
H      -1.774679    0.752631    1.819515
H       0.929644   -1.539823   -1.299772
