18

C      -0.004690    1.502804    0.045126
C       0.025233    0.008604   -0.017342
C      -0.006999   -0.760313   -1.107891
C      -0.023561   -2.233407   -0.787867
C       0.389882   -2.259259    0.717541
C       0.038805   -0.834413    1.241539
C      -0.191260   -3.348981    1.486756
C      -0.684250   -4.245282    2.119231
H       0.875462    1.897004    0.569074
H      -0.035103    1.948051   -0.953037
H      -0.880957    1.858012    0.602899
H      -0.062964   -0.385480   -2.124791
H      -1.025022   -2.662169   -0.926558
H       0.658900   -2.828160   -1.404191
H       1.482109   -2.355496    0.749712
H       0.759218   -0.485695    1.990049
H      -0.946004   -0.822885    1.728150
H      -1.114173   -5.038728    2.678348
