14

C      -0.001383    1.454587    0.079274
N      -0.010197    0.004227    0.166741
C      -1.094279   -0.618696    0.073349
N      -1.213755   -2.006241    0.143567
C      -2.507116   -2.448523    0.013795
O      -2.913654   -3.581997    0.033711
C      -3.310229   -1.159752   -0.162223
O      -2.350187   -0.102308   -0.110416
H       0.647627    1.760798   -0.748825
H      -0.989931    1.903638   -0.067727
H       0.436673    1.867236    0.994996
H      -0.412603   -2.602079    0.277056
H      -3.830237   -1.150098   -1.125251
H      -4.044321   -1.042273    0.641041
