19

O       0.091986    1.400148    0.091560
C       0.094804   -0.007837    0.088324
C       0.120741   -0.647997    1.500543
C      -1.394726   -0.289503    1.602527
C      -1.351265   -0.609967    0.087802
O      -2.319583   -0.115474   -0.781348
C      -1.076170   -2.113364    0.073682
O      -0.713032   -2.471537   -1.254658
C       0.073464   -2.149048    1.136221
H      -0.593635    1.673632   -0.531056
H       0.805357   -0.403143   -0.648071
H       0.837411   -0.326462    2.253842
H      -2.035174   -0.907089    2.238649
H      -1.557920    0.769385    1.791252
H      -2.233956   -0.621808   -1.600206
H      -1.959882   -2.684250    0.388837
H      -0.648597   -3.429140   -1.311324
H       1.004032   -2.505739    0.684019
H      -0.164913   -2.782896    1.994651
