22

C      -0.127857    1.162743   -0.611173
C       0.154635   -0.194643   -0.003485
C       1.558309   -0.650359    0.291013
O       2.579527    0.270400    0.026522
C       0.597425   -0.393218    1.444145
C       0.845280    0.818428    2.328492
C      -0.001842   -1.545784    2.201543
C       0.173478   -2.972336    1.839989
N       0.831361   -2.430037    3.045722
H       0.648053    1.888337   -0.363889
H      -0.167062    1.087434   -1.703058
H      -1.092034    1.555630   -0.271075
H      -0.495766   -0.984946   -0.370639
H       1.820293   -1.678323    0.042071
H       3.269603    0.155684    0.687965
H       1.393056    1.602064    1.803746
H      -0.100386    1.241816    2.684943
H       1.426084    0.533582    3.213485
H      -0.939267   -1.284571    2.693179
H      -0.629475   -3.677342    2.037201
H       0.789919   -3.232123    0.984563
H       1.810767   -2.254601    2.826193
