20

O       0.091136    1.341773   -0.391572
C       0.060710    0.058780    0.218216
C      -1.336316   -0.475627    0.317334
C      -2.408222   -0.108395    1.364538
C      -2.946384   -1.552726    1.236463
C      -3.392152   -2.439158    2.357191
C      -4.365960   -2.044993    1.265748
C      -1.878254   -1.874551    0.207179
N      -1.957394   -0.948450   -0.924748
H      -0.298756    1.231322   -1.266347
H       0.682209   -0.662726   -0.332873
H       0.494542    0.186577    1.215511
H      -1.985875    0.095789    2.352712
H      -3.081268    0.710941    1.090030
H      -3.033784   -3.463787    2.370842
H      -3.518262   -1.999448    3.341457
H      -5.146345   -1.333699    1.516634
H      -4.665961   -2.803714    0.549870
H      -1.368127   -2.821702    0.065873
H      -2.903539   -0.592047   -1.050828
