21

C       0.064390    1.374101    0.180551
O      -0.012454    0.003022   -0.161802
C      -1.288340   -0.568224   -0.038244
C      -1.262559   -1.912241   -0.781726
C      -0.956648   -1.753758   -2.274573
O      -0.986787   -2.994933   -2.961702
C      -1.710232   -0.764008    1.432118
C      -3.125975   -1.263863    1.676587
O      -0.948530   -0.535169    2.340793
H       1.083429    1.697321   -0.044059
H      -0.636255    1.974168   -0.421396
H      -0.137861    1.541312    1.243536
H      -2.049532    0.084319   -0.508814
H      -0.498537   -2.546014   -0.313155
H      -2.224524   -2.422509   -0.674329
H      -1.729139   -1.134524   -2.745419
H       0.002326   -1.237207   -2.403304
H      -0.219821   -3.504497   -2.682063
H      -3.837825   -0.861690    0.949661
H      -3.149254   -2.356012    1.586979
H      -3.430897   -0.998790    2.690139
