24

C       0.008459    1.495674    0.157591
C      -0.024459   -0.013896   -0.119642
C      -1.443463   -0.587084    0.014956
O      -1.961508   -0.480443    1.333358
C       0.620153   -0.398753   -1.471685
C      -0.013546    0.270089   -2.695102
N       2.044844   -0.051187   -1.433834
C       2.939467   -1.017970   -0.809029
C       2.931389   -0.832622   -2.286512
H       1.009310    1.895740   -0.019761
H      -0.693386    2.042500   -0.482939
H      -0.255709    1.706552    1.199221
H       0.574292   -0.509093    0.656590
H      -2.121276   -0.108332   -0.709624
H      -1.435206   -1.659868   -0.208989
H      -2.109324    0.451973    1.516600
H       0.503845   -1.494814   -1.585326
H       0.100156    1.356381   -2.651090
H       0.473298   -0.078592   -3.611017
H      -1.078196    0.032874   -2.773804
H       3.739599   -0.605416   -0.201082
H       2.506958   -1.941533   -0.425905
H       2.493423   -1.634523   -2.879976
H       3.725247   -0.282016   -2.783311
