17

N       0.009045    1.354892    0.103039
C       0.040597   -0.019189    0.027294
O       1.118206   -0.620592   -0.008718
C      -1.242049   -0.703255    0.039346
C      -1.350784   -2.056380    0.001478
N      -0.357447   -2.961246   -0.124790
C      -2.804364   -2.441235    0.066755
O      -3.517944   -1.223725    0.183931
C      -2.622267   -0.108234    0.135879
H       0.886153    1.822575   -0.063974
H      -0.827575    1.859725   -0.138309
H       0.578195   -2.576761   -0.041584
H      -0.520163   -3.925003    0.110058
H      -3.115222   -2.989498   -0.837342
H      -3.016017   -3.090775    0.931608
H      -2.767800    0.503793    1.040159
H      -2.888397    0.523732   -0.729285
