18

O      -0.169070    1.401008   -0.167640
C       0.019587    0.025115    0.033885
C       0.165754   -0.541978    1.477619
C      -0.548287   -1.796597    0.907832
C      -1.250040   -0.849615   -0.107863
O       0.400141   -2.662211    0.296570
C       0.986527   -2.116821   -0.880334
C       1.144872   -0.579207   -0.825755
H       0.684325    1.840661   -0.083112
H       1.168609   -0.686846    1.887774
H      -0.465959    0.007435    2.180446
H      -1.156600   -2.412345    1.570564
H      -2.108203   -0.356877    0.354254
H      -1.531154   -1.231922   -1.091444
H       1.950947   -2.616678   -1.007342
H       0.368027   -2.378868   -1.750323
H       1.089336   -0.173739   -1.842044
H       2.116985   -0.293146   -0.403737
