19

C      -0.101659    1.503421    0.194650
C       0.087094   -0.015328    0.159726
C       0.660115   -0.513360   -1.169083
O       1.921644    0.087459   -1.470037
C       0.799201   -2.041527   -1.233265
C      -0.525758   -2.796690   -1.298860
O      -1.602419   -2.272530   -1.419841
C       1.609952   -2.469981   -2.464099
O       2.269977   -3.473622   -2.505932
H       0.837693    2.020794   -0.017133
H      -0.833253    1.822670   -0.555112
H      -0.462549    1.830364    1.173969
H       0.761878   -0.329866    0.970674
H      -0.869136   -0.517583    0.335319
H      -0.000604   -0.194082   -1.983012
H       2.509754   -0.065706   -0.721290
H       1.342127   -2.438796   -0.363992
H      -0.415657   -3.900658   -1.249127
H       1.507522   -1.794885   -3.337414
