17

C       0.047844    1.623959   -0.548945
C       0.188441    0.117608   -0.318394
N       1.533889   -0.436488   -0.608714
C       1.647077   -1.078461    0.732075
C       0.356853   -0.359636    1.137104
O      -0.295548   -0.224393    2.131359
C      -0.940217   -0.668978   -1.017257
N      -2.175760   -0.471180   -0.481877
O      -0.716158   -1.379141   -1.977906
H       0.879124    2.149601   -0.073378
H       0.073148    1.840846   -1.621081
H      -0.893642    2.001672   -0.141296
H       1.475220   -1.103296   -1.374608
H       1.535762   -2.171272    0.752927
H       2.547803   -0.807741    1.293238
H      -2.260437   -0.096199    0.450813
H      -2.930455   -1.040932   -0.831973
