15

N      -0.033677    1.407400    0.222282
C      -0.004207    0.023097    0.079229
C      -1.202398   -0.707968    0.063183
C      -1.133803   -2.086783   -0.019093
F      -2.277285   -2.783339   -0.035891
C       0.062664   -2.785973   -0.088670
C       1.244954   -2.042340   -0.073286
O       2.469690   -2.635133   -0.140251
C       1.218886   -0.652848    0.007814
H       0.786770    1.890326   -0.112158
H      -0.884927    1.853080   -0.085663
H      -2.167600   -0.219447    0.120054
H       0.058886   -3.867857   -0.153497
H       2.353476   -3.589326   -0.191981
H       2.157500   -0.110636    0.020663
