14

O       0.086036    1.381261   -0.092686
C      -0.001716    0.009857   -0.031268
C      -0.426508   -0.798045   -1.219203
C      -1.294319   -0.787907    0.040157
C      -1.017849   -1.916040    0.969204
O      -1.733182   -2.752215    1.417352
O       0.350669   -1.879267    1.315895
C       0.909020   -0.687979    0.917631
N       1.990336   -0.191444    1.326323
H       0.885991    1.616066    0.400303
H      -0.822920   -0.211528   -2.040055
H       0.099513   -1.703172   -1.502247
H      -2.287152   -0.362217    0.012365
H       2.456016   -0.780821    2.015854
