18

O       0.065095    0.024378    0.002370
C       0.020295    1.238541   -0.111499
C      -1.250222    2.022961   -0.090037
C      -1.280498    3.291581    0.330638
C      -0.022750    4.034976    0.729441
C       1.161991    3.492775   -0.068261
C       2.570353    3.342736    0.582699
C       2.480919    1.812202    0.294912
N       1.124721    2.029374   -0.216473
H      -2.150655    1.466721   -0.324843
H      -2.229992    3.809592    0.439914
H      -0.137527    5.110725    0.560993
H       0.142764    3.906991    1.809657
H       1.194507    3.987902   -1.048243
H       3.380230    3.874539    0.082282
H       2.582882    3.588026    1.646747
H       3.180162    1.438765   -0.460293
H       2.515361    1.148084    1.163439
