15

O       0.119743    1.418184    0.186032
C       0.104523    0.043368    0.051777
C       1.323592   -0.682323    0.690070
N       1.033567   -2.126279    0.679376
C       1.553490   -1.481893   -0.549299
C       0.356361   -0.789863   -1.245325
O      -0.939285   -1.445901   -1.072813
C      -1.228732   -0.695313    0.050748
N      -2.282959   -0.567675    0.716060
H      -0.794558    1.724625    0.182712
H       2.016776   -0.226020    1.385044
H       1.817455   -2.602957    1.123556
H       2.471523   -1.816879   -1.014133
H       0.494253   -0.373377   -2.240924
H      -3.030343   -1.170355    0.367289
