21

C      -0.020176    1.567518   -0.182088
C       0.173310    0.065256   -0.072581
O       0.928505   -0.388451   -1.192432
C       1.247295   -1.740373   -0.920766
C       1.585460   -1.799876    0.592615
C       3.048056   -1.620550    0.905159
C       3.308992   -0.469628    1.518291
C       2.069716    0.351438    1.761657
C       0.911892   -0.503829    1.167062
H       0.937666    2.085662   -0.272618
H      -0.612562    1.803347   -1.070445
H      -0.547567    1.953503    0.695633
H      -0.822130   -0.415887   -0.101821
H       0.386894   -2.391775   -1.148337
H       2.081181   -2.030538   -1.565901
H       1.188396   -2.722206    1.030574
H       3.787928   -2.364400    0.627522
H       4.294912   -0.131128    1.819352
H       1.916094    0.541230    2.831685
H       2.151632    1.339448    1.294961
H       0.183659   -0.739416    1.946230
