19

C      -0.141221    1.544918    0.035238
C       0.028216    0.031766    0.027504
C       1.124788   -0.610682   -0.869217
C       2.161876   -0.265401    0.220686
C       0.940554   -0.610455    1.135322
C       0.752099   -2.103229    0.757109
O       0.902695   -2.023226   -0.664719
C       1.761258   -3.018926    1.420527
O       2.786215   -3.406998    0.926095
H       0.799973    2.087485    0.154336
H      -0.600595    1.881272   -0.900567
H      -0.803318    1.850379    0.852607
H      -0.949963   -0.447551   -0.088379
H       1.249996   -0.413784   -1.932667
H       3.043990   -0.904359    0.271271
H       2.439129    0.786233    0.262686
H       0.880187   -0.339204    2.189082
H      -0.254065   -2.462730    1.021211
H       1.475510   -3.297594    2.463330
