18

C      -0.057883    1.511543   -0.105626
C       0.075314    0.008179   -0.001164
C       1.415283   -0.676473   -0.014776
O       2.589618    0.079383    0.076001
C       0.600908   -0.691978    1.268530
C       1.144954    0.100345    2.461717
O       2.346347   -0.448995    2.954915
C      -0.021600   -1.946007    1.609000
N      -0.538559   -2.947091    1.872425
H       0.853293    2.025260    0.206795
H      -0.256138    1.790832   -1.145920
H      -0.889823    1.883956    0.499484
H      -0.714795   -0.547715   -0.497576
H       1.516009   -1.615783   -0.554513
H       2.809450    0.423549   -0.796260
H       1.265445    1.151582    2.179168
H       0.422088    0.057327    3.281148
H       3.001484   -0.346808    2.254358
