21

C       0.129984    1.454004    0.071401
C       0.021674    0.002540    0.017315
C      -0.068150   -1.198356   -0.013691
C      -0.185628   -2.655289   -0.077030
C      -1.657408   -3.091814   -0.226187
C       0.693817   -3.217892   -1.212520
C       0.931016   -4.721515   -1.129647
C       1.586514   -5.359036   -2.341983
O       0.630284   -5.369604   -0.152575
H       0.738251    1.840982   -0.753911
H      -0.854777    1.930107    0.005825
H       0.594683    1.785305    1.006846
H       0.193430   -3.085085    0.858371
H      -2.079911   -2.711976   -1.162247
H      -1.729911   -4.181739   -0.217625
H      -2.258769   -2.698101    0.597080
H       0.271265   -2.966992   -2.193960
H       1.682296   -2.739110   -1.193838
H       2.479012   -4.801156   -2.644788
H       1.848012   -6.394772   -2.122217
H       0.893337   -5.333061   -3.191126
