15

C       0.381251    0.769235   -0.784004
C      -0.090666    0.143124    0.508369
O       0.392554    0.427796    1.579551
C      -1.232637   -0.877401    0.495467
C      -2.090173   -1.138111   -0.775313
O      -0.928606   -1.833808   -1.395238
C      -0.889912   -2.321610    0.007133
C      -2.418857   -2.539360   -0.181403
O      -3.283643   -3.337284   -0.061247
H       1.211565    1.444236   -0.573521
H       0.672292   -0.004242   -1.498415
H      -0.438054    1.331262   -1.247885
H      -1.761782   -0.820004    1.450326
H      -2.658349   -0.448203   -1.395073
H      -0.073296   -2.977004    0.300472
