14

C      -0.027170    1.481972    0.010755
C       0.004631   -0.006163   -0.003628
N       0.006353   -0.712788   -1.085267
N       0.039717   -2.021741   -0.665547
C       0.060245   -2.187015    0.698831
O       0.089951   -3.193472    1.353624
N       0.036269   -0.815774    1.137283
C       0.042400   -0.373446    2.465854
O       0.069583   -1.084146    3.428677
H       0.854259    1.902974    0.506069
H      -0.045563    1.829063   -1.023197
H      -0.915280    1.864952    0.524694
H       0.047299   -2.768923   -1.337578
H       0.018724    0.729963    2.517815
