21

C      -0.021963    1.569623   -0.039880
C       0.093850    0.055814    0.056715
O       1.028881   -0.472057   -0.909889
C       1.944266   -1.267087   -0.100161
C       2.176163   -2.568152   -0.903136
C       0.756829   -3.016310   -0.331062
C       1.035593   -2.010381    0.846402
C       0.710489   -0.538032    1.321327
C       2.277250   -0.280788    1.049501
H       0.919903    2.069220    0.201328
H      -0.305927    1.856239   -1.056918
H      -0.795011    1.936688    0.643846
H      -0.895470   -0.386186   -0.131997
H       2.291624   -2.473456   -1.984729
H       2.979454   -3.183680   -0.491879
H      -0.050515   -2.729423   -1.002712
H       0.646377   -4.064468   -0.046037
H       1.610798   -2.523363    1.619739
H       0.244187   -0.306318    2.279819
H       2.898959   -0.709325    1.836146
H       2.599103    0.733611    0.803942
