14

N       0.060416    1.349059    0.215558
C      -0.034060   -0.021123    0.056509
C      -1.168818   -0.833252    0.005779
C      -2.505805   -0.396997    0.009544
C      -3.638083    0.019094    0.010932
C      -0.623552   -2.148518   -0.074086
O      -1.358020   -3.271218   -0.149783
N       0.692232   -2.169247   -0.082426
N       1.037029   -0.836743   -0.011192
H       0.751199    1.798039   -0.371739
H      -0.842240    1.796536    0.116402
H      -4.642662    0.361076    0.018149
H      -0.738777   -4.010828   -0.201584
H       2.001878   -0.592744    0.124994
