15

O       0.007580    0.038761    0.078484
C       0.008054    1.239927    0.031906
C      -1.180078    2.149724    0.008276
C      -1.026017    3.502977    0.638410
C       0.451630    3.896501    0.819860
N       1.302017    2.783418    1.328105
C       1.215366    2.177393   -0.057886
C       0.611541    3.482827   -0.653987
N      -0.908139    3.337057   -0.848118
H      -2.173398    1.724476   -0.071346
H      -1.883278    3.989124    1.092349
H       0.630259    4.894031    1.219979
H       2.248294    3.122744    1.485260
H       2.117001    1.715694   -0.456562
H       1.114084    4.042280   -1.438977
