15

O      -0.067623    1.432216    0.020457
C       0.029185    0.011144   -0.020266
C      -1.407083   -0.519113   -0.007767
O      -1.431794   -1.908917   -0.268977
C      -0.993308   -2.232663   -1.574134
C       0.245384   -1.487524   -1.986963
C       0.725029   -0.476663   -1.267960
H       0.822016    1.792282    0.088967
H       0.556579   -0.359054    0.874230
H      -1.870809   -0.372704    0.970483
H      -1.987174    0.044763   -0.755148
H      -0.810726   -3.313961   -1.575701
H      -1.797723   -2.045809   -2.310161
H       0.725364   -1.809388   -2.907698
H       1.629478    0.048092   -1.569537
