19

C       0.122148    1.658659   -0.088766
C       0.040241    0.127327   -0.020684
C       0.691250   -0.516962   -1.251041
C       0.669703   -0.410718    1.271285
C      -0.114427   -0.109662    2.544202
C       0.595397   -0.416431    3.852341
O      -1.240213    0.334218    2.522005
H       1.166486    1.995655   -0.098619
H      -0.353134    2.034361   -1.000768
H      -0.380643    2.118482    0.765349
H      -1.020299   -0.149678    0.000629
H       1.760937   -0.279841   -1.303809
H       0.593502   -1.607968   -1.233812
H       0.227874   -0.154035   -2.174278
H       0.765787   -1.506213    1.222666
H       1.698721   -0.042929    1.392761
H       1.431431    0.279668    3.989510
H      -0.099354   -0.312575    4.686643
H       1.022245   -1.425056    3.841329
