17

C      -0.275200    1.497433    0.023094
C       0.041836    0.017565    0.013147
O      -1.142936   -0.794766    0.288572
C      -0.460345   -1.497403    1.345753
C       0.824819   -0.646885    1.167923
C       2.005262   -1.366694    0.520255
O       2.894928   -1.951193    1.092835
C       1.823772   -1.225956   -0.949973
C       0.746847   -0.481841   -1.228821
H       0.634517    2.091310   -0.112851
H      -0.968360    1.739314   -0.789580
H      -0.745212    1.780845    0.968484
H      -0.965124   -1.365950    2.308322
H      -0.352811   -2.568184    1.136757
H       1.115655   -0.042518    2.025965
H       2.488618   -1.703563   -1.659106
H       0.365943   -0.260097   -2.220690
