20

C      -0.176634    1.576573   -0.029689
C      -0.017452    0.053971   -0.018248
C       0.722527   -0.479068   -1.248785
C       0.879198   -2.011983   -1.234888
C       1.587830   -2.552191   -2.424806
C       2.760306   -3.199487   -2.638335
N       2.917618   -3.457756   -3.996867
C       1.852158   -2.961966   -4.530416
O       0.990874   -2.393654   -3.653739
H       0.797878    2.076435   -0.056970
H      -0.742140    1.908588   -0.907315
H      -0.706611    1.928780    0.860631
H       0.520118   -0.252410    0.889083
H      -1.006927   -0.418541    0.042079
H       0.187448   -0.183692   -2.159444
H       1.716702   -0.018810   -1.312849
H       1.437794   -2.321996   -0.344786
H      -0.113860   -2.474848   -1.157101
H       3.501269   -3.500915   -1.914870
H       1.566086   -2.945128   -5.570376
