18

O       2.527066    0.148973   -0.943911
C       2.584084    1.203741   -0.368839
C       1.357418    2.042383   -0.016578
C       0.135046    1.126332    0.075531
O      -0.820866    1.206022   -0.645792
N       1.557366    2.711154    1.254366
C       0.548333    3.710023    1.683626
C       1.692910    4.559709    2.282029
C       2.639151    3.720258    1.392050
H       3.556523    1.643962   -0.058691
H       1.184021    2.744692   -0.858472
H       0.199480    0.383613    0.898491
H       0.057486    4.210202    0.834128
H      -0.221363    3.323564    2.358170
H       1.663478    5.633496    2.099245
H       1.844055    4.373841    3.346401
H       3.567131    3.347287    1.835293
H       2.875730    4.230435    0.444522
