21

C      -0.348167    1.497744   -0.129637
C       0.144501    0.065090   -0.086137
O       1.437605   -0.095560   -0.718912
C       1.952034   -0.833128    0.405087
C       0.677457   -0.561329    1.236637
C       0.844189    0.345818    2.451245
C       1.517636   -0.390934    3.629234
C       1.701700    0.457116    4.800196
C       1.841012    1.178661    5.751377
H       0.355473    2.182298    0.350474
H      -0.467492    1.810784   -1.171705
H      -1.321769    1.588589    0.364078
H      -0.595324   -0.588392   -0.572265
H       2.135555   -1.887014    0.157398
H       2.882376   -0.394692    0.789991
H       0.136832   -1.467191    1.527966
H       1.446865    1.223598    2.194087
H      -0.131297    0.720767    2.781048
H       0.914633   -1.267054    3.902646
H       2.491732   -0.783180    3.308004
H       1.969893    1.806078    6.598041
