14

O       0.058308    1.344990    0.008669
C      -0.020923   -0.053467    0.001875
C      -1.485463   -0.466923    0.011774
O      -2.405392    0.315477    0.022994
C      -1.749605   -1.927220    0.005998
C      -2.919280   -2.627455    0.011616
C      -2.491530   -3.977496    0.001085
N      -1.182060   -4.083500   -0.010567
O      -0.706029   -2.783102   -0.007196
H       0.988165    1.589623   -0.000802
H       0.448303   -0.511329   -0.885698
H       0.462818   -0.520649    0.876736
H      -3.917836   -2.225945    0.021875
H      -3.087817   -4.878702    0.001127
