13

O      -0.078037    0.089567    0.433431
C      -0.072637    1.222062    0.025690
C      -1.223086    2.170972   -0.174496
C      -0.663831    3.356004   -0.525590
C      -0.141342    4.289343    0.549742
N       1.229468    3.626440    0.266530
C       0.749966    3.208667   -1.060850
C       1.155117    2.116898   -0.145572
H      -2.065649    2.082254    0.505178
H       0.005671    5.339295    0.287494
H      -0.549708    4.181323    1.557146
H       1.196417    3.509711   -2.000942
H       2.150585    1.689580   -0.117209
