20

C      -0.392717    1.443973    0.232776
C      -0.045726   -0.017361    0.065085
C       0.579124   -0.583556   -1.204527
C       1.036268    0.282376   -2.371704
C       2.558563    0.462153   -2.293227
C       2.937295    1.096648   -0.960135
O       2.446266    0.410297    0.192357
C       1.386961   -0.495573    0.068353
H       0.387803    2.103436   -0.152154
H      -1.328445    1.694653   -0.279856
H      -0.518700    1.685233    1.293509
H      -0.747929   -0.691151    0.550609
H       0.251600   -1.581059   -1.481644
H       0.752009   -0.187616   -3.317444
H       0.551892    1.266068   -2.357924
H       3.050436   -0.512489   -2.398323
H       2.928964    1.104699   -3.099744
H       4.026122    1.142694   -0.844270
H       2.565116    2.133784   -0.941853
H       1.615602   -1.414964    0.601435
