15

C       0.099708    1.584105   -0.015840
C       0.010244    0.055733   -0.001488
O       0.710856   -0.373379    1.150675
C      -1.467251   -0.445156    0.005615
C      -2.213886    0.003037    1.171464
C      -2.836865    0.371554    2.130152
C       0.659207   -0.499600   -1.217190
N       1.156327   -0.963515   -2.151644
H       1.146914    1.891385    0.000812
H      -0.377976    1.992085   -0.909561
H      -0.402496    1.972273    0.872376
H       0.671909   -1.335457    1.202249
H      -1.956337   -0.108191   -0.916114
H      -1.460490   -1.541907   -0.037596
H      -3.389273    0.693638    2.978219
