13

C       0.013000    1.557967    0.044616
C      -0.006722    0.058741    0.009763
C      -1.124302   -0.675717   -0.200463
F      -2.318099   -0.164132   -0.397866
O      -1.157414   -1.998447   -0.233955
C       0.027900   -2.758397   -0.043233
O      -0.048314   -3.949379   -0.081478
C       1.198004   -1.913072    0.178474
N       1.174221   -0.622056    0.201381
H       0.684934    1.950093   -0.725406
H      -0.983999    1.969745   -0.120633
H       0.381952    1.913696    1.011842
H       2.138048   -2.434883    0.331423
