21

O       0.008324    1.412015   -0.064438
C      -0.018467   -0.001825    0.020090
C      -1.428040   -0.476653    0.100048
C      -2.559560    0.236939    0.107116
C      -3.721309   -0.742719    0.042936
C      -3.708148   -1.354487   -1.399752
C      -2.387153   -2.185034   -1.407340
C      -1.820236   -1.948673    0.034110
C      -3.131301   -1.921266    0.852356
H       0.926743    1.694817   -0.043409
H       0.471942   -0.466935   -0.855283
H       0.539796   -0.360727    0.903771
H      -2.640765    1.313391    0.041852
H      -4.692613   -0.358768    0.357133
H      -4.581156   -1.996463   -1.555020
H      -3.726247   -0.579201   -2.169020
H      -2.586915   -3.248753   -1.569871
H      -1.685079   -1.860628   -2.179680
H      -1.054411   -2.665621    0.337445
H      -2.971462   -1.676249    1.905253
H      -3.713866   -2.845893    0.770821
