18

C       0.133659    1.076371   -0.520086
O      -0.120210    0.113552    0.484519
C      -1.380923   -0.463653    0.382599
C      -1.585791   -1.613629   -0.573140
C      -1.532924   -1.852086    0.929251
C      -0.348795   -2.562843    1.557774
C      -0.407224   -4.060218    1.347562
O      -0.284287   -4.884793    2.216488
H       1.141380    1.461137   -0.348459
H       0.079343    0.637019   -1.526250
H      -0.580697    1.911411   -0.467437
H      -2.206142    0.235162    0.528482
H      -2.533366   -1.715999   -1.090050
H      -0.718231   -1.917115   -1.150194
H      -2.485965   -2.060088    1.407687
H       0.572826   -2.189652    1.093162
H      -0.281385   -2.364084    2.631497
H      -0.580036   -4.365384    0.289011
