12

C       0.066156    1.528354    0.009639
O       1.199094    0.640574   -0.006001
C      -0.090534    0.077498    0.003333
C      -0.617898   -0.898837    1.050258
O      -1.189495   -1.716784    0.004215
C      -0.637977   -0.887570   -1.043733
H      -0.075785    2.085696    0.934603
H      -0.093435    2.095604   -0.906381
H       0.166834   -1.422024    1.611439
H      -1.378295   -0.521708    1.744481
H      -1.411506   -0.503070   -1.719149
H       0.135796   -1.404607   -1.625455
