14

O       0.132259    1.393425   -0.057865
C       0.094968    0.003925   -0.053139
C       1.031029   -0.534506   -1.019372
C       1.797026   -1.012232   -1.810972
C       0.024857   -0.692265    1.365782
N      -1.379577   -0.087757    1.446448
C      -1.338706   -0.660224    0.026948
C      -0.662274   -1.886890    0.672842
O      -0.782673   -3.066791    0.767227
H      -0.516796    1.666229    0.609712
H       2.475325   -1.433253   -2.511994
H       0.736093   -0.625674    2.186132
H      -1.990343   -0.635996    2.055376
H      -2.169907   -0.557393   -0.667166
