19

C       0.031312    1.447309    0.031462
N       0.050919    0.005136   -0.027792
C       0.092862   -0.794255   -1.169448
C       0.099948   -2.088432   -0.781574
C       0.138382   -3.338099   -1.588785
N       0.061716   -2.091986    0.617213
C       0.053249   -3.237811    1.496892
C       0.030841   -0.789883    1.107341
O      -0.005827   -0.432962    2.275175
H       0.929881    1.877577   -0.424728
H      -0.850868    1.855332   -0.474396
H      -0.001530    1.723121    1.086895
H       0.115150   -0.370232   -2.159005
H       0.162036   -3.091035   -2.652778
H       1.023954   -3.946045   -1.366046
H      -0.739899   -3.970903   -1.411056
H       0.955139   -3.847359    1.373710
H       0.020897   -2.849858    2.516572
H      -0.824449   -3.870768    1.326165
