14

C      -0.045003    1.569366    0.054728
C       0.010277    0.030972   -0.011892
C       0.685073   -0.472170   -1.196770
C       1.249846   -0.879920   -2.188933
C       1.880197   -1.337798   -3.296430
C       2.445215   -1.751852   -4.289598
C       3.119497   -2.203204   -5.475019
O       3.291491   -3.365956   -5.766676
H       0.961697    1.994589    0.063053
H      -0.579618    1.976899   -0.806921
H      -0.562268    1.885444    0.964699
H       0.518570   -0.363415    0.877786
H      -1.007032   -0.380971    0.016588
H       3.483773   -1.382858   -6.126349
