17

O      -0.137134    1.383657   -0.057703
C       0.004086   -0.010905    0.017482
C      -0.435231   -0.735594    1.272712
C      -1.308056   -0.752775    0.029963
O      -2.453504    0.048009    0.027930
C      -1.479860   -2.014581   -0.755817
C      -2.807896   -2.669282   -0.832970
N      -2.238075   -1.989247   -2.013389
H       0.381266    1.787369    0.645792
H       0.836482   -0.414051   -0.556534
H       0.102215   -1.633054    1.560987
H      -0.800057   -0.127840    2.094372
H      -2.139485    0.959137   -0.068977
H      -0.586826   -2.636271   -0.785523
H      -2.875641   -3.750508   -0.912898
H      -3.631249   -2.188061   -0.314690
H      -2.677871   -1.073252   -2.088133
