19

N      -0.039078   -1.212892   -0.075318
C      -0.012801   -0.058362   -0.044948
C       0.003443    1.403404   -0.030926
C       1.418207    1.998697    0.043069
C       1.445796    3.542504   -0.075897
C       2.724083    3.933290    0.694702
C       2.891095    2.810851    1.710572
C       1.688239    2.396442    2.475688
N       2.113156    1.628592    1.291503
H      -0.495503    1.761408   -0.938627
H      -0.593617    1.753779    0.818947
H       2.014914    1.564160   -0.767178
H       1.459766    3.873984   -1.116841
H       0.557245    3.985058    0.386684
H       3.590580    3.947035    0.024718
H       2.654316    4.922490    1.156853
H       3.881349    2.619409    2.113304
H       1.796632    1.859493    3.412698
H       0.801100    3.023076    2.421084
