13

O      -0.175543    1.369633    0.076627
C       0.011352   -0.026204   -0.012866
C       0.773120   -0.395941   -1.229474
N       1.365099   -0.670298   -2.182451
C       0.659776   -0.600983    1.215273
C       0.292337   -1.541038    2.122647
C       1.375805   -1.540281    3.044122
N       2.303846   -0.675415    2.720616
O       1.852031   -0.076086    1.547469
H       0.685763    1.777664    0.230722
H      -0.988410   -0.462112   -0.101943
H      -0.603972   -2.137760    2.139041
H       1.506458   -2.139568    3.933926
