21

C      -0.058784    1.710957   -0.094431
C       0.016039    0.192262   -0.037658
C       1.154927   -0.609704   -0.762329
C       2.127242   -0.149424    0.366319
C       0.809076   -0.550024    1.088822
C       0.811990   -1.818368    0.154090
C      -0.443791   -2.637547   -0.057002
C      -0.724047   -3.689077    1.005016
O      -1.171268   -2.492211   -1.015333
H       0.897684    2.212293    0.071979
H      -0.434485    2.031926   -1.072217
H      -0.761456    2.083219    0.659652
H      -0.976879   -0.219949   -0.222702
H       1.352153   -0.651060   -1.833828
H       2.995827   -0.787424    0.552054
H       2.410202    0.902412    0.387971
H       0.612693   -0.539570    2.163243
H       1.649260   -2.494684    0.367425
H      -0.753787   -3.232580    2.000745
H      -1.671723   -4.186138    0.794460
H       0.081542   -4.432318    1.023095
