20

C      -0.011053    1.516010    0.167614
C       1.307552    0.802251   -0.001215
C       0.006435    0.015721    0.007941
C      -0.039284   -0.638751   -1.392180
C      -0.277876    0.412502   -2.502088
C       1.062521    1.222731   -2.511539
C       1.893849    0.529804   -1.405781
C       1.466103   -0.948255   -1.606345
H      -0.228340    1.887058    1.165046
H      -0.402142    2.153846   -0.615419
H       1.991436    0.777952    0.840519
H      -0.281170   -0.595848    0.856511
H      -0.720429   -1.490156   -1.442906
H      -0.441507   -0.087045   -3.461681
H      -1.155193    1.035462   -2.310355
H       1.570964    1.129408   -3.475862
H       0.920660    2.290256   -2.325013
H       2.963699    0.736850   -1.468824
H       1.875144   -1.616037   -0.842572
H       1.701362   -1.349005   -2.599670
