21

O      -0.104252    1.430032   -0.012196
C      -0.002492    0.010342    0.097142
C      -1.424386   -0.534008    0.010206
O      -2.215729    0.068125    1.006967
C      -1.993107   -0.547795   -1.445965
C      -1.668124   -2.068329   -1.534405
C      -1.486699   -2.066926   -0.011346
C      -0.789588   -3.049933    0.885030
C      -2.287891   -2.873339    0.965231
H       0.735923    1.820323    0.243241
H       0.622933   -0.410139   -0.703250
H       0.434418   -0.277278    1.064073
H      -1.936751    0.992887    1.040866
H      -3.067931   -0.358379   -1.422944
H      -1.520706    0.119153   -2.170284
H      -2.454030   -2.714859   -1.932748
H      -0.741095   -2.274847   -2.079058
H      -0.400182   -3.957967    0.435075
H      -0.189950   -2.668990    1.706083
H      -2.693428   -2.348399    1.822737
H      -2.919275   -3.663644    0.571253
