14

O       0.153237    1.424760   -0.124089
C       0.151059    0.018305   -0.100758
C      -1.282254   -0.538909    0.087036
C      -2.163319   -0.129081   -1.001609
C      -2.844081    0.214212   -1.930836
C      -1.272779   -2.062985    0.225973
O      -0.273022   -2.730753    0.245671
C      -2.600238   -2.694187    0.369606
N      -3.634158   -3.190912    0.514258
H      -0.357660    1.708123   -0.891326
H       0.588536   -0.420479   -1.007255
H       0.765282   -0.288387    0.748528
H      -1.682834   -0.140395    1.031964
H      -3.469457    0.510168   -2.737639
