19

C      -0.193486    1.454943    0.287246
N       0.037572    0.041400    0.019164
C       0.484749   -0.424396   -1.285079
C       0.836474    0.536680   -2.415899
C       2.315008    0.907469   -2.374382
O       2.728710    1.343940   -1.070262
C       2.572049    0.450768   -0.041438
N       3.344179    0.449864    0.962229
C       1.404775   -0.479467   -0.097820
H       0.513521    2.148378   -0.187166
H      -1.205918    1.708674   -0.042997
H      -0.142317    1.608095    1.368789
H       0.004403   -1.350554   -1.593215
H       0.619087    0.064008   -3.378777
H       0.221271    1.441175   -2.363963
H       2.932418    0.050383   -2.674775
H       2.545041    1.742723   -3.040137
H       4.080480    1.147918    0.833265
H       1.580750   -1.406295    0.438384
