22

C       0.224769    1.508685    0.255305
C      -0.167071    0.078315   -0.142038
C       0.616795   -0.459891   -1.334651
C       0.395344    0.311219   -2.625261
C       1.982406   -1.045511   -1.099096
C       0.828589   -1.984788   -1.443138
C       0.309840   -2.969503   -0.400963
C       0.831132   -2.549419   -2.771814
N       0.819854   -3.026681   -3.826460
H       1.296403    1.578338    0.470348
H      -0.005849    2.231330   -0.532286
H      -0.318211    1.817293    1.153587
H      -0.025290   -0.570315    0.726417
H      -1.238832    0.045684   -0.377722
H       0.750917    1.341160   -2.525484
H       0.922425   -0.142523   -3.466951
H      -0.669649    0.346213   -2.880512
H       2.752254   -0.891398   -1.847042
H       2.353307   -1.110054   -0.080764
H       0.442358   -2.587583    0.612151
H      -0.752316   -3.184991   -0.552089
H       0.857879   -3.913562   -0.473346
