17

C      -0.073391    1.600005   -0.064773
C       0.086667    0.095396    0.032905
N       1.094532   -0.611768   -0.864936
C       2.419466    0.006638   -0.453575
C       2.274271   -0.661220    0.900901
C       1.308864   -1.616358    0.284246
C       0.754759   -0.579835    1.235436
C       0.262567   -0.753057    2.559677
N      -0.165437   -0.875918    3.628710
H       0.811150    2.147671    0.267476
H      -0.293840    1.885487   -1.098741
H      -0.912952    1.919604    0.560415
H      -0.874046   -0.391988   -0.157948
H       3.213283   -0.454433   -1.046111
H       2.483309    1.093684   -0.537530
H       2.993318   -0.843394    1.689525
H       1.202489   -2.690091    0.234034
