19

O      -0.114458    0.064369    0.386070
C       0.040535    1.186862   -0.014366
C       1.397935    1.783933   -0.343204
O       1.193486    3.059869   -0.897289
C       2.376193    3.785011   -1.105182
C       3.234163    3.533090   -2.388454
C       2.067387    4.173668   -3.200110
C       2.237568    5.077503   -1.939530
C       3.774103    4.974336   -2.168072
H      -0.804817    1.892241   -0.172984
H       1.990190    1.832885    0.587106
H       1.931082    1.106892   -1.028792
H       2.941911    3.867283   -0.165124
H       3.815339    2.645597   -2.641887
H       2.339821    4.626104   -4.156888
H       1.142636    3.601721   -3.267704
H       1.664372    5.965870   -1.673335
H       4.419989    5.140266   -1.300775
H       4.157835    5.479848   -3.056131
