16

N      -0.056142    1.241975    0.266461
C      -0.057639   -0.005416    0.157706
O       0.999933   -0.908540    0.066719
C       0.060970   -1.991844   -0.162805
C      -0.797904   -2.162690    1.033762
C      -1.120112   -1.053941    0.018869
C      -2.415871   -0.926945   -0.687719
C      -3.050792    0.382563   -0.903332
O      -2.390979   -0.302863   -1.972209
H       0.893551    1.615445    0.298967
H       0.303565   -2.707869   -0.934988
H      -1.496671   -2.994307    1.003639
H      -0.412595   -1.915156    2.017753
H      -3.055638   -1.808594   -0.630412
H      -4.135358    0.440024   -0.984228
H      -2.541566    1.273693   -0.544630
