17

O      -0.453249    0.076312   -0.199655
C      -0.258637    1.244578   -0.037535
C      -1.133987    2.496971   -0.050999
O      -0.727314    3.240958    1.121051
C       0.101497    3.323960   -0.031471
C       1.033365    2.104519    0.027381
C       2.138568    1.999303    1.104328
C       3.208012    2.195958   -0.005571
C       2.116908    1.893425   -1.069489
H      -2.124173    2.687203   -0.447464
H       0.260599    4.295503   -0.484647
H       2.093316    2.729298    1.915059
H       2.168263    0.995261    1.536836
H       3.561738    3.228854   -0.060340
H       4.076193    1.534114    0.013984
H       2.130541    0.852066   -1.402135
H       2.063753    2.542208   -1.947792
