18

C      -0.057833    1.555390    0.042837
C       0.044045    0.043404   -0.055591
O      -1.178367   -0.556930   -0.433507
C       1.170666   -0.577890   -0.950254
C       1.726613   -1.293119    0.282393
N       2.090423   -0.238404    1.248264
C       0.672867   -0.698012    1.165530
C      -0.041629   -1.221164    2.273294
C      -0.696608   -1.627486    3.199269
H       0.898912    1.984336    0.348405
H      -0.349953    1.976313   -0.924152
H      -0.816055    1.841346    0.781893
H      -1.812204   -0.405351    0.277787
H       0.727314   -1.251919   -1.683659
H       1.858241    0.120505   -1.431627
H       2.174897   -2.277286    0.338169
H       2.497522   -0.691514    2.066751
H      -1.261526   -2.002115    4.016659
