20

O      -0.614240    1.491487   -0.638676
C      -0.042769    0.304302   -0.104916
C      -1.205244   -0.496545    0.478095
C      -0.799777   -1.800576    1.197421
C      -0.504672   -2.949059    0.244329
O      -1.215010   -3.926120    0.184494
C       0.732609   -2.858872   -0.670892
N       1.487367   -1.624515   -0.753349
C       0.767867   -0.436275   -1.185436
H       0.090919    2.013798   -1.035253
H       0.649841    0.551810    0.721887
H      -1.722552    0.151963    1.191730
H      -1.925367   -0.712807   -0.320403
H       0.079543   -1.611645    1.828589
H      -1.612487   -2.136959    1.844884
H       1.407292   -3.663169   -0.351671
H       0.392211   -3.145392   -1.673945
H       2.024352   -1.449415    0.087417
H       0.096216   -0.715496   -2.006692
H       1.492539    0.277154   -1.606618
