19

C       0.105134    1.524754    0.165211
C       0.217823    0.009306    0.023187
C       0.593710   -0.435768   -1.383867
O       0.783345    0.348272   -2.292627
C       0.711485   -1.865012   -1.570061
C       0.809573   -3.061164   -1.724318
C       0.930321   -4.468394   -1.927006
C       0.527160   -5.074739   -3.268361
C       1.974015   -5.003081   -2.903862
H       1.051018    2.011777   -0.084831
H      -0.653947    1.925039   -0.511551
H      -0.165104    1.795498    1.189725
H       0.965332   -0.406256    0.712396
H      -0.722512   -0.492229    0.288979
H       0.740484   -5.083248   -1.052595
H       0.026713   -6.035594   -3.234265
H       0.153915   -4.391038   -4.020852
H       2.593252   -4.270223   -3.406322
H       2.485739   -5.913803   -2.614769
