20

C      -0.229018    1.501419    0.028665
C       0.018812    0.021686   -0.038476
N      -0.018131   -0.609463   -1.131463
C       0.064144   -2.062907   -1.200839
C       1.315268   -2.724915   -0.608892
C       1.350636   -2.693950    0.911647
O       2.524137   -3.386082    1.321686
C       1.394632   -1.265595    1.460703
O       0.213671   -0.499048    1.225547
H       0.651151    2.019821    0.424958
H      -0.471899    1.888541   -0.960149
H      -1.054093    1.705255    0.719548
H      -0.827347   -2.492430   -0.718630
H       0.002287   -2.331960   -2.259498
H       1.349295   -3.771012   -0.931910
H       2.217169   -2.238641   -1.000206
H       0.445073   -3.187560    1.301028
H       2.501850   -3.480575    2.279581
H       1.500977   -1.293699    2.550763
H       2.271847   -0.750361    1.047171
