15

O       0.012610   -0.031342    0.040691
C      -0.004645    1.172950    0.042833
C      -1.193300    2.165877   -0.024119
N      -0.637488    3.530529   -0.049735
C       0.613987    3.339692    0.015740
O       1.633145    4.209323   -0.004662
C       2.859323    3.477434    0.238704
C       2.523696    1.969263    0.047888
N       1.082668    2.033515    0.107063
H      -1.793090    1.963587   -0.918332
H      -1.849275    2.019979    0.841512
H       3.610545    3.841053   -0.463437
H       3.187084    3.691061    1.260349
H       2.870748    1.583285   -0.916802
H       2.944737    1.348866    0.842533
