18

C      -0.117568    1.586903    0.091031
C      -0.017652    0.073807    0.051031
C       1.170491   -0.601438   -0.705813
N       2.075554   -0.084879    0.395991
C       0.871109   -0.665829    1.100524
C       0.903129   -1.901257    0.128434
O      -0.315205   -2.604014   -0.002951
C       2.013426   -2.917617    0.331447
O       3.183675   -2.777773    0.070516
H       0.857057    2.043196    0.268241
H      -0.517424    1.967360   -0.855565
H      -0.804300    1.903394    0.883820
H      -0.981156   -0.403604   -0.120824
H       1.447205   -0.533434   -1.759902
H       2.887141   -0.696667    0.488340
H       0.781910   -0.687472    2.188140
H      -0.321433   -3.059177   -0.852271
H       1.624453   -3.872221    0.751497
