23

C      -0.319964    1.488456    0.003311
C       0.040221    0.003947   -0.020942
C       0.962537   -0.395976   -1.187155
C       1.535206   -1.752224   -0.750868
O       2.716596   -2.153090   -1.425004
C       1.842783   -1.538326    0.736506
C       0.778207   -0.546574    1.225693
C       1.061080    0.296699    2.445188
C       0.023677   -0.796342    2.506017
H       0.575356    2.112707    0.092678
H      -0.837328    1.773949   -0.918805
H      -0.985610    1.732799    0.838462
H      -0.894564   -0.565588   -0.126195
H       0.441908   -0.430771   -2.150511
H       1.794904    0.314033   -1.280159
H       0.754417   -2.523347   -0.859357
H       2.495693   -2.303370   -2.349375
H       1.853540   -2.474490    1.301821
H       2.847536   -1.103988    0.802693
H       2.005418    0.134863    2.955670
H       0.719218    1.325364    2.466560
H      -1.020727   -0.499338    2.546311
H       0.250377   -1.695135    3.071000
