23

C       0.023250    1.519675    0.010036
C       0.024485    0.063316    0.002344
C       0.036618   -1.140877   -0.004299
C       0.017466   -2.599915   -0.011945
C      -1.406229   -3.192007   -0.001532
C      -1.408145   -4.723510   -0.009837
C      -2.817972   -5.320712    0.000417
C      -2.820894   -6.843457   -0.007860
O      -4.172279   -7.279958    0.002688
H       1.043663    1.919224    0.002444
H      -0.495094    1.924101   -0.866648
H      -0.478290    1.914809    0.900621
H       0.556053   -2.970529   -0.895095
H       0.572777   -2.979927    0.856726
H      -1.938872   -2.822768    0.882866
H      -1.955639   -2.813240   -0.871521
H      -0.863373   -5.081989   -0.894765
H      -0.846558   -5.091538    0.860541
H      -3.367033   -4.978246    0.886227
H      -3.383869   -4.968668   -0.870926
H      -2.290491   -7.211722   -0.901818
H      -2.273522   -7.221394    0.871717
H      -4.177793   -8.241400   -0.002409
