15

C       0.023250    1.443453    0.035584
N       0.006058   -0.003454    0.027403
C      -0.031526   -0.808809   -1.076662
N      -0.038441   -2.082687   -0.765647
C      -0.003643   -2.109319    0.608789
C       0.024519   -0.840142    1.131181
C       0.066232   -0.338071    2.533988
H       0.928913    1.826797    0.516907
H       0.001256    1.802709   -0.994971
H      -0.847528    1.847665    0.562095
H      -0.052222   -0.395457   -2.075061
H      -0.000556   -3.041087    1.155447
H       0.962040    0.261896    2.738705
H      -0.803473    0.282899    2.783672
H       0.073724   -1.185208    3.223715
