18

C      -0.045524    1.537766   -0.008302
N       0.096230    0.087778    0.004941
C       0.780090   -0.566493   -1.101182
C       2.297749   -0.609047   -0.816631
C       2.494946    0.043805    0.549011
C       1.097021   -0.543931    0.909437
C       1.338958   -1.644789   -0.211984
C       1.288975   -3.052363   -0.235611
C       1.255531   -4.256336   -0.239919
H       0.875573    2.092450   -0.244980
H      -0.801069    1.809516   -0.752934
H      -0.407991    1.869446    0.970301
H       0.357897   -0.658968   -2.094312
H       3.027944   -0.789636   -1.594941
H       3.278147   -0.466246    1.114778
H       2.638464    1.126747    0.616306
H       0.790990   -0.715034    1.939920
H       1.220159   -5.317161   -0.246976
