17

O       0.042411   -0.003659   -0.036901
C       0.006620    1.200166   -0.010235
C      -1.264294    2.053522    0.039396
C      -0.914958    3.355883    0.775623
C      -0.115597    3.008068    2.069773
C       1.168130    3.103242    1.222925
C       0.424712    3.949275    0.169097
O       0.930740    3.188067   -0.936567
C       1.230622    2.109743    0.001142
H      -1.587911    2.253049   -0.988188
H      -2.057989    1.493783    0.541542
H      -1.767735    4.029341    0.867765
H      -0.142662    3.816920    2.804776
H      -0.355215    2.065407    2.571432
H       2.130771    3.362548    1.662552
H       0.494978    5.029250    0.031953
H       2.163868    1.592185   -0.222937
