20

C       0.424057    1.684168    0.010645
C      -0.147496    0.273349   -0.109336
N       0.543856   -0.444771   -1.179885
C       1.725991   -1.216202   -0.851485
C       0.462163   -1.911386   -1.272155
C      -0.311142   -2.785466   -0.274723
N      -1.738598   -2.935587   -0.522372
C       0.353800   -2.396589   -2.637176
N       0.243319   -2.832722   -3.702494
H       1.482639    1.654057    0.288120
H       0.337801    2.214969   -0.940902
H      -0.111386    2.249293    0.779155
H      -0.076459   -0.235756    0.864608
H      -1.209597    0.323669   -0.376236
H       2.565758   -1.137638   -1.535635
H       1.994141   -1.330701    0.199648
H       0.143719   -3.782372   -0.282680
H      -0.166029   -2.388142    0.733675
H      -2.197010   -2.029789   -0.536491
H      -1.894555   -3.354715   -1.434755
