14

N      -0.031461    1.421833   -0.129720
C      -0.013231    0.030968   -0.050758
C      -1.173182   -0.742636    0.034189
N      -1.200817   -2.077177    0.053188
C      -0.032389   -2.713786   -0.011577
C       1.192599   -2.053706   -0.091446
C       1.204909   -0.666602   -0.110006
O       2.337877    0.090202   -0.175460
H       0.832455    1.858711    0.157738
H      -0.837372    1.855138    0.297165
H      -2.136428   -0.236553    0.088184
H      -0.065396   -3.799843    0.002379
H       2.122710   -2.613850   -0.135173
H       3.107465   -0.488044   -0.191836
