23

C       0.002530    1.559134    0.032859
C       0.045891    0.029959    0.021310
C      -1.345078   -0.529709   -0.295108
C       1.119390   -0.667621   -0.823105
C       2.410155   -0.748408    0.005034
C       2.131669   -0.118646    1.365500
C       0.703041   -0.727745    1.244795
C      -0.084793   -1.053108    2.488132
C       1.307126   -1.761461    0.194723
H       0.995928    2.005160    0.112567
H      -0.449350    1.934383   -0.892811
H      -0.606824    1.932784    0.864775
H      -1.675170   -0.205437   -1.288661
H      -1.352026   -1.624006   -0.283969
H      -2.089196   -0.176356    0.427563
H       1.145134   -0.764186   -1.902618
H       3.367713   -0.901330   -0.476873
H       2.698084   -0.628358    2.151688
H       2.229034    0.963950    1.501031
H      -0.354731   -0.138184    3.030055
H      -1.011561   -1.589189    2.260489
H       0.501717   -1.677177    3.171319
H       1.292778   -2.838973    0.116092
