22

C       0.210274    1.443260   -0.270556
C      -0.146301   -0.001338    0.110085
C       0.664494   -0.557514    1.272454
C       0.519281    0.191789    2.585841
C       0.879349   -2.065611    1.382033
C       0.297700   -3.075985    0.414864
C       2.024148   -1.170693    0.981916
O       2.474525   -1.298682   -0.338942
H       1.270841    1.537035   -0.532081
H      -0.372485    1.770934   -1.137085
H       0.011469    2.146327    0.543711
H      -1.213657   -0.052319    0.364355
H      -0.008732   -0.635580   -0.768343
H      -0.522305    0.184491    2.930396
H       1.126993   -0.267822    3.371851
H       0.833537    1.237905    2.500859
H       0.928771   -2.428880    2.406237
H       0.474812   -2.794765   -0.624098
H       0.765049   -4.054700    0.567867
H      -0.780829   -3.197487    0.563924
H       2.819662   -1.003966    1.709982
H       2.767872   -0.432540   -0.639359
