20

C      -0.423994    1.367874    0.599811
O      -0.306906   -0.027384    0.724052
C       0.986335   -0.502501    0.400148
C       0.962967   -2.013004    0.515460
C       2.276388   -2.858320    0.540449
C       2.499240   -2.401747    2.013591
C       0.982690   -2.736849    1.901279
C       1.412165   -4.015473    1.123414
H      -0.224839    1.706564   -0.430041
H      -1.449073    1.637288    0.866775
H       0.268771    1.900409    1.271699
H       1.248136   -0.214984   -0.634102
H       1.735412   -0.035656    1.057843
H       0.197682   -2.400223   -0.166660
H       3.026020   -2.931993   -0.249792
H       3.093617   -3.074230    2.638425
H       2.782845   -1.363554    2.191203
H       0.229144   -2.664657    2.685895
H       0.668647   -4.458931    0.455230
H       1.945969   -4.778674    1.695872
