14

N      -0.267245    1.368355    0.102716
C       0.022371   -0.061245   -0.029960
C       0.816033   -0.392846   -1.240114
N       1.408650   -0.606794   -2.209401
C       0.710945   -0.568647    1.208556
N       1.846094   -0.016035    1.642600
N       2.116980   -0.707737    2.736896
N       1.265916   -1.669003    3.061517
C       0.352053   -1.598184    2.092644
H       0.601744    1.865475    0.277193
H      -0.647292    1.726217   -0.768904
H      -0.931083   -0.593691   -0.124788
H       2.934427   -0.515130    3.294174
H      -0.494417   -2.265637    2.074225
