19

C       0.052540    1.496444    0.032851
C       0.030359   -0.015147   -0.010711
O       0.666257   -0.443232   -1.194408
C       0.495486   -1.837442   -1.397991
C       0.888223   -2.632524   -0.163968
O       0.329511   -3.915169   -0.097254
C       2.217395   -2.387487    0.510405
C       0.933119   -1.872885    1.130117
O       0.709619   -0.490576    1.134386
H       1.086717    1.846681   -0.009055
H      -0.497798    1.902784   -0.818540
H      -0.404544    1.848408    0.960261
H      -1.003433   -0.407556   -0.005746
H      -0.556516   -2.072166   -1.625057
H       1.104107   -2.101331   -2.269663
H       0.878192   -4.505732   -0.625608
H       2.701278   -3.235240    0.982853
H       2.873288   -1.639910    0.077912
H       0.557276   -2.374662    2.017124
