13

O       0.321093    1.337521   -0.161616
C       0.123720    0.011345   -0.093986
C      -0.226068   -0.841477   -1.090186
O      -0.300719   -2.097695   -0.525939
C       0.004603   -1.915674    0.767466
C       0.029113   -3.110327    1.668600
C      -1.271379   -3.777518    1.776949
N      -2.292656   -4.308888    1.864452
N       0.267600   -0.685769    1.090052
H       0.543014    1.636608    0.728488
H      -0.442625   -0.755345   -2.138155
H       0.765119   -3.840991    1.311786
H       0.349031   -2.773429    2.657785
