20

C      -0.075610    1.383783    0.070473
O      -0.028490   -0.022112    0.039254
C       0.696745   -0.569550    1.118236
C       0.672933   -2.087886    0.989978
C       1.390808   -2.796185    2.135809
O       0.808881   -2.492594    3.413062
C       1.438843   -4.316697    1.966304
O       2.057250   -4.928216    3.076091
H       0.930373    1.828956    0.008894
H      -0.659473    1.711953   -0.792972
H      -0.557317    1.757046    0.988437
H       1.738394   -0.203133    1.109804
H       0.257725   -0.261856    2.080537
H      -0.372323   -2.423502    0.941967
H       1.134155   -2.373934    0.037385
H       2.421310   -2.429878    2.220681
H      -0.135607   -2.682380    3.353205
H       0.408982   -4.692780    1.817713
H       2.015444   -4.584546    1.074041
H       1.727988   -4.446080    3.846283
