14

N      -0.093096    1.471057    0.061427
C      -0.005163    0.026731    0.000180
C       0.663093   -0.562149   -1.278318
C      -0.014575   -0.086557   -2.478591
N      -0.577374    0.318512   -3.403021
C       0.761130   -0.462412    1.230917
F       0.138045   -0.151252    2.362732
F       0.917445   -1.797194    1.199338
F       1.991067    0.084498    1.268776
H       0.822954    1.893553   -0.053841
H      -0.692640    1.822543   -0.677232
H      -1.016288   -0.383819    0.085183
H       1.714264   -0.254777   -1.314360
H       0.643656   -1.655881   -1.256470
