16

O      -0.007457   -0.059182    0.080217
C       0.023357    1.152282    0.039428
N       1.166191    1.895005   -0.046535
C       1.232407    3.382169   -0.039283
C       2.698231    3.637645   -0.435748
O       3.656314    4.180629    0.528454
C       4.529918    3.013794    0.357830
C       3.364313    2.301210   -0.281333
C       2.469554    1.362781    0.035069
H      -0.881812    1.788560    0.074068
H       0.519039    3.801424   -0.751466
H       1.018700    3.776629    0.961217
H       2.799020    4.171104   -1.388733
H       5.371683    3.258723   -0.301523
H       4.902264    2.620982    1.308380
H       2.581329    0.350532    0.394564
