15

O      -0.185913    1.338238   -0.358806
N      -0.008560   -0.047527   -0.296363
C      -1.102697   -0.661297    0.020572
C      -1.010879   -2.102442    0.196106
C      -2.027497   -2.992421    0.135386
C      -3.409173   -2.725232   -0.157061
C      -4.036214   -1.522397   -0.146265
N      -3.568720   -0.313136    0.316519
C      -2.344355    0.049152    0.411498
H       0.699816    1.646105   -0.577267
H      -0.004824   -2.469834    0.377055
H      -1.767086   -4.039587    0.265296
H      -4.024667   -3.588979   -0.394395
H      -5.087573   -1.490192   -0.421342
H      -2.163916    1.023104    0.865561
