16

C       0.066212    1.463627    0.110941
C      -0.046077   -0.053701   -0.035327
C      -1.490477   -0.533356   -0.057793
C       0.797905   -0.593252   -1.211183
O       2.028920   -0.983705   -0.603384
C       1.854338   -1.104481    0.740356
O       2.671064   -1.533181    1.490767
O       0.622538   -0.666978    1.095664
H       1.114400    1.777135    0.102542
H      -0.451073    1.965935   -0.712588
H      -0.383121    1.787429    1.053165
H      -2.002027   -0.150925   -0.946904
H      -1.533564   -1.625517   -0.073425
H      -2.028257   -0.177695    0.824972
H       0.337788   -1.467561   -1.685186
H       1.004685    0.163138   -1.971190
