17

O      -0.596857    0.804268    0.718627
C       0.127074    1.035215   -0.217911
C       1.350858    1.878158   -0.146612
C       1.847925    2.396322    1.199585
N       2.326785    3.790434    1.034271
C       3.550692    3.965327    0.248645
C       2.224942    4.125875   -0.403439
C       1.614647    2.969368   -1.164159
N       2.289974    1.688605   -1.270593
H      -0.069492    0.634171   -1.236326
H       1.005250    2.396072    1.896051
H       2.633856    1.767313    1.632888
H       4.133473    4.845896    0.507009
H       4.162610    3.097378    0.010468
H       1.851949    5.114740   -0.654632
H       0.924494    3.199767   -1.970023
H       3.255363    1.725157   -0.957906
