19

C       2.696228   -0.086259   -0.346973
C       1.237711   -0.445325   -0.228338
O       0.888377   -1.543366    0.623821
C       0.425551   -0.234222    0.983474
C       0.943205    0.411107    2.244084
C       0.314978    0.116657    3.639378
C       0.968624   -1.285345    3.658285
C       2.004296   -0.240448    3.179681
O       1.543208    0.666217    4.257878
H       3.182020   -0.030107    0.628597
H       3.222843   -0.832477   -0.950849
H       2.805741    0.883243   -0.845041
H       0.697525   -0.454377   -1.177486
H      -0.647756   -0.096389    0.828305
H       1.114303    1.482702    2.103683
H      -0.642116    0.447800    4.044700
H       1.155747   -1.680484    4.657267
H       0.631222   -2.037200    2.945950
H       3.080572   -0.343190    3.040047
