21

O      -0.079478    1.426444   -0.084055
C       0.001565    0.008082   -0.099880
C      -1.414899   -0.537276    0.031870
C      -1.469051   -2.066047    0.064514
O      -0.687734   -2.599350    1.136636
C      -2.909923   -2.596672    0.120361
C      -2.966047   -4.101498    0.024085
C      -4.092302   -4.804119   -0.599997
O      -2.854283   -4.649750   -1.295550
H       0.814130    1.777051   -0.138705
H       0.450022   -0.356511   -1.038639
H       0.620130   -0.372399    0.724980
H      -1.866289   -0.131112    0.948511
H      -2.019047   -0.164029   -0.803262
H      -0.993366   -2.465889   -0.839666
H      -1.035267   -2.232503    1.958082
H      -3.375261   -2.270285    1.062398
H      -3.496459   -2.163396   -0.697526
H      -2.376557   -4.633022    0.770453
H      -4.335779   -5.821211   -0.295317
H      -4.927742   -4.229807   -0.999992
