25

C       0.444826    1.445091    0.288043
C       0.435852   -0.084594    0.221158
C       0.595157   -0.605110   -1.211214
O       1.806291   -0.079056   -1.773090
C       2.711776   -1.127818   -2.134121
C       4.133491   -0.680609   -1.831994
C       2.220691   -2.359083   -1.370393
C       0.699633   -2.145907   -1.366796
C      -0.078540   -2.992583   -0.360778
H       1.372109    1.839368   -0.134501
H      -0.389315    1.868637   -0.283137
H       0.355400    1.797101    1.320292
H       1.243967   -0.486374    0.845457
H      -0.505072   -0.468229    0.634236
H      -0.245419   -0.222038   -1.809181
H       2.619169   -1.316817   -3.217425
H       4.258772   -0.499809   -0.759710
H       4.852550   -1.444646   -2.145521
H       4.364988    0.246248   -2.364563
H       2.521977   -3.298515   -1.841997
H       2.614737   -2.354246   -0.346025
H       0.330980   -2.390037   -2.371897
H       0.280115   -2.841240    0.661928
H      -1.148034   -2.756822   -0.379831
H       0.026969   -4.057108   -0.594113
