19

O       0.043329    1.203933   -0.567981
C      -0.069038   -0.217002   -0.560053
C      -1.394814   -0.553732    0.124252
C      -2.619346   -0.052285   -0.688944
C      -3.092945   -1.269412   -1.460127
O      -2.037521   -1.951387   -2.154910
C      -2.484003   -2.479514   -0.899631
C      -1.626445   -2.090163    0.285838
O      -0.456530   -2.890156    0.333888
H       0.802833    1.436317   -1.109357
H      -0.057882   -0.629813   -1.574833
H       0.762616   -0.672006   -0.003583
H      -1.372887   -0.068627    1.105821
H      -3.425649    0.286922   -0.028170
H      -2.351072    0.789699   -1.332634
H      -4.058470   -1.278723   -1.959894
H      -2.938918   -3.465606   -0.940911
H      -2.238888   -2.264400    1.186652
H      -0.007865   -2.717396    1.167324
