19

C      -0.733743    1.230166   -0.542488
C      -0.082853   -0.149232   -0.423576
C       0.935141   -0.543351   -1.530173
O       1.022259   -1.967415   -1.714335
C       2.129631   -2.072410   -0.796279
C       2.124555   -0.547459   -0.503382
C       3.427109    0.217158   -0.558968
C       1.095358   -0.179589    0.578775
O       1.197930    0.107653    1.737323
H       0.006577    2.005514   -0.768206
H      -1.484865    1.238883   -1.337968
H      -1.219669    1.501593    0.398683
H      -0.834826   -0.926019   -0.253803
H       0.918015    0.014491   -2.469732
H       1.924415   -2.745953    0.043981
H       3.042821   -2.403548   -1.307147
H       3.995374   -0.032941   -1.460636
H       3.259125    1.298597   -0.548815
H       4.044720   -0.025509    0.312556
