17

C      -0.099029    1.571077   -0.023743
C      -0.026541    0.063242   -0.001716
C      -1.208820   -0.669465   -0.524278
O      -2.188474   -0.149261   -0.996888
C       1.319036   -0.643857   -0.221141
O       2.456483    0.103795   -0.458574
C       0.703316   -0.683283    1.152219
C       1.330326    0.077745    2.187418
C       1.919438    0.721704    3.017168
H       0.899107    2.011153   -0.025038
H      -0.623229    1.887539   -0.928390
H      -0.652284    1.957024    0.836871
H      -1.125883   -1.780997   -0.459970
H       1.304832   -1.566219   -0.795498
H       2.797302    0.418812    0.389968
H       0.259366   -1.624725    1.464829
H       2.403942    1.288309    3.774034
