17

O       0.156416    1.408653   -0.277808
C       0.046285    0.030656   -0.008400
C       0.293423   -0.502060    1.449428
C      -1.122015   -1.145673    1.424036
C      -2.298657   -0.290799    1.923267
C      -2.161056    1.146093    1.625450
N      -2.586058    0.258799    0.524157
C      -1.399136   -0.543862    0.025310
H       1.091411    1.630658   -0.331203
H       0.638927   -0.552380   -0.728271
H       1.116310   -1.217557    1.523040
H       0.436265    0.275574    2.204135
H      -1.203289   -2.213075    1.620877
H      -3.103507   -0.673317    2.544364
H      -2.977302    1.784849    1.952533
H      -1.199883    1.640988    1.576715
H      -1.705611   -1.135380   -0.837381
