18

C      -0.047902    1.459127    0.083647
N       0.024343    0.010220    0.126017
C      -1.050249   -0.659285    0.055044
O      -2.284662    0.002099   -0.062487
C      -3.436801   -0.695884   -0.139082
C      -3.496654   -2.035566   -0.110257
C      -2.267270   -2.791811    0.009249
C      -2.329392   -4.292366    0.041934
C      -1.104365   -2.105528    0.087019
H       0.962427    1.869191    0.155887
H      -0.502228    1.825466   -0.847803
H      -0.645832    1.869694    0.909558
H      -4.293626   -0.038158   -0.225660
H      -4.456461   -2.531902   -0.176208
H      -2.940441   -4.639082    0.883908
H      -2.797099   -4.683212   -0.869660
H      -1.334520   -4.733380    0.134357
H      -0.145782   -2.601435    0.177842
