23

C      -0.206879    1.575910   -0.476078
C      -0.005438    0.175714    0.116537
C      -1.308901   -0.588625    0.238297
C      -1.875302   -1.375748   -0.921671
C      -1.405001   -2.098714    0.326652
C      -0.154033   -2.957931    0.251841
C      -2.475079   -2.665473    1.254531
C      -3.026596   -3.989336    0.764922
O      -3.127025   -4.986993    1.431916
H       0.742584    2.114966   -0.550552
H      -0.643617    1.518930   -1.478594
H      -0.882327    2.174751    0.144821
H       0.703195   -0.379811   -0.507312
H       0.462332    0.262603    1.106165
H      -2.050088   -0.061467    0.837294
H      -2.938901   -1.314392   -1.128713
H      -1.260033   -1.468325   -1.811721
H       0.574178   -2.564695   -0.460704
H       0.336123   -3.027902    1.229983
H      -0.398735   -3.979071   -0.062628
H      -2.097437   -2.805476    2.273185
H      -3.321933   -1.966225    1.303685
H      -3.351082   -3.979545   -0.302062
