20

C       0.019708    1.638231    0.033376
C       0.196382    0.124204   -0.127189
C       0.689807   -0.540043    1.154479
C      -0.234049   -0.651528    2.422636
C       0.113127   -2.143395    2.513609
C      -0.362742   -2.876322    1.277931
C      -1.595065   -2.557597    0.605587
N      -2.599751   -2.318727    0.082865
C       0.917143   -2.058632    1.221918
H       0.962807    2.122539    0.311696
H      -0.329099    2.096522   -0.896652
H      -0.714833    1.871397    0.811933
H      -0.749031   -0.323113   -0.447248
H       0.921587   -0.078612   -0.926567
H       1.623787   -0.056250    1.463498
H       0.128504   -0.067896    3.269957
H      -1.295232   -0.432302    2.271713
H       0.324043   -2.696508    3.420514
H      -0.170054   -3.945296    1.305977
H       1.837581   -2.565543    0.954834
