20

C       0.090417    1.522778    0.209476
C       1.525732    1.940901   -0.186693
N       2.031209    0.899271   -1.110200
C       2.502531   -0.366545   -0.520088
C       2.743192   -0.641513    0.954816
C       1.519852   -0.420420    1.865774
O       0.295037   -0.743894    1.235398
C       0.053611   -0.014852    0.033635
C       1.116158   -0.258907   -1.040767
H      -0.212677    1.832874    1.213295
H      -0.619510    1.963869   -0.497415
H       1.534614    2.896556   -0.719061
H       2.186940    2.055208    0.679269
H       3.243900   -0.843922   -1.158618
H       3.047458   -1.692831    1.017509
H       3.590417   -0.052457    1.328055
H       1.584279   -1.073250    2.740727
H       1.497645    0.612780    2.240040
H      -0.929729   -0.360038   -0.291836
H       0.818386   -0.716000   -1.980235
