22

C       0.062381    1.385068   -0.309224
C      -0.008406   -0.088487    0.120752
C       0.686441   -0.318714    1.470814
C      -1.435539   -0.565980    0.142161
C      -2.561207   -0.203060    1.120123
C      -3.377098   -1.328039    0.429735
C      -3.531277   -0.782613   -0.997290
N      -2.050019   -0.913734   -1.196029
C      -2.007664   -1.916384   -0.087477
H       1.101435    1.722675   -0.378929
H      -0.411501    1.524301   -1.284796
H      -0.448222    2.031916    0.413871
H       0.506939   -0.687445   -0.640825
H       0.219677    0.275794    2.264378
H       0.641651   -1.371104    1.769227
H       1.739965   -0.026438    1.417584
H      -2.283004   -0.470784    2.142645
H      -2.982004    0.808982    1.103720
H      -4.173974   -1.849909    0.956540
H      -4.031068   -1.474180   -1.680854
H      -3.938411    0.227822   -1.127590
H      -1.581024   -2.907259   -0.178438
