17

O       0.144703    1.317176   -0.317043
C       0.066973    0.006434    0.222655
C      -1.349510   -0.481129    0.288035
C      -2.435232   -0.072862    1.312715
C      -2.944031   -1.510842    1.205187
N      -3.790118   -2.233739    1.809947
O      -4.531157   -1.475165    2.734048
C      -1.911830   -1.887518    0.194517
N      -1.967685   -0.953678   -0.944426
H      -0.191825    1.265112   -1.218675
H       0.663984   -0.709173   -0.360777
H       0.495597    0.066141    1.228163
H      -2.053505    0.138330    2.316287
H      -3.105897    0.737680    1.013532
H      -5.111185   -2.139025    3.122343
H      -1.431838   -2.847947    0.055581
H      -2.905145   -0.583148   -1.090220
