18

C      -0.057135    1.456670   -0.061795
C      -0.070851   -0.031356   -0.042923
C      -0.216365   -1.089653   -1.110034
C       0.770710   -1.958912   -0.297368
C      -0.134284   -1.941571    0.879795
N       0.931621   -0.885700    0.746381
C      -1.164895   -1.070110    0.107166
C      -2.650188   -0.951937    0.146321
O      -3.337737   -2.068198   -0.409916
H       0.893010    1.828868   -0.460508
H      -0.864117    1.843047   -0.692993
H      -0.184742    1.864141    0.947122
H      -0.470842   -1.019712   -2.158308
H       1.581997   -2.621835   -0.573338
H      -0.199122   -2.581628    1.753294
H      -2.984594   -0.761797    1.179357
H      -2.960927   -0.088340   -0.452665
H      -3.086500   -2.848170    0.094864
