21

C      -0.481386    1.360792    0.006639
C       0.065510   -0.061718   -0.068329
C       1.142293   -0.312001   -1.133682
C       1.738082   -1.631965   -0.651608
O       1.744455   -1.551298    0.770768
C       0.758526   -0.601991    1.230640
C       1.509241    0.463918    2.043684
C      -0.216501   -1.287078    2.088187
C      -1.028798   -1.825249    2.792395
H       0.313422    2.096234    0.163463
H      -0.992771    1.619476   -0.925897
H      -1.206200    1.463376    0.820774
H      -0.770168   -0.739777   -0.275945
H       0.730190   -0.369625   -2.144713
H       1.897153    0.482729   -1.118852
H       1.124997   -2.483031   -0.987036
H       2.767063   -1.803844   -0.982204
H       2.199032    1.016655    1.399704
H       0.819072    1.166595    2.517232
H       2.090775   -0.032000    2.823992
H      -1.737672   -2.313718    3.414270
