16

O      -0.146754    0.031871    0.269269
C      -0.003967    1.221197    0.183374
N       1.196301    1.899901    0.014504
C       1.228320    3.365161   -0.085298
C       2.705386    3.716285    0.005878
C       3.436749    3.229699    1.216799
C       3.479285    2.418717   -0.067331
C       2.480978    1.304127   -0.139896
O       2.698450    0.136379   -0.308001
H      -0.849845    1.938018    0.240623
H       0.811106    3.693851   -1.044935
H       0.637477    3.821613    0.716343
H       3.047065    4.605999   -0.506904
H       4.353328    3.741449    1.486106
H       2.872678    2.837906    2.057449
H       4.412863    2.287261   -0.596582
