21

C      -0.117829    1.609637    0.014929
C       0.000718    0.075364   -0.005425
C      -1.406829   -0.548122   -0.032037
O      -2.074867   -0.116299   -1.208571
C       0.818365   -0.437560   -1.184672
C       1.790756   -1.272762   -0.813220
C       1.863895   -1.412010    0.670575
C       2.211040   -0.132945    1.407982
C       0.765960   -0.502529    1.197166
H       0.867573    2.082544    0.013191
H      -0.673697    1.962122   -0.857327
H      -0.651993    1.942745    0.911873
H      -1.313129   -1.644183   -0.006926
H      -1.956192   -0.235047    0.872628
H      -2.932966   -0.547693   -1.243783
H       0.598610   -0.130380   -2.200038
H       2.482886   -1.769427   -1.484577
H       2.105745   -2.366342    1.125531
H       2.590265   -0.223885    2.420972
H       2.647713    0.677017    0.833321
H       0.190834   -0.779026    2.075088
