18

O      -0.141159   -0.052155    0.052574
C      -0.043823    1.154420    0.021983
N      -1.094932    2.043279   -0.028263
C      -0.745361    3.465082    0.018970
C       0.705765    3.366853    0.398433
C       1.546829    4.018578    1.193675
C       2.809991    3.201857    1.412653
C       2.382705    1.764602    0.985022
C       1.227432    2.011512   -0.004585
H      -2.042918    1.707344   -0.089633
H      -0.902383    3.949353   -0.957006
H      -1.342644    4.006737    0.760904
H       1.372742    4.980424    1.663159
H       3.639738    3.573519    0.794470
H       3.157069    3.243907    2.450602
H       3.201471    1.184369    0.554953
H       2.009197    1.213661    1.853943
H       1.587062    2.003911   -1.045534
