19

N      -0.205229    1.430759   -0.142128
C      -0.071222   -0.001329   -0.059109
C      -0.311829   -0.626880    1.309750
C      -1.333568   -0.807239    0.241797
C      -2.749974   -0.231351    0.139782
C      -3.095135   -1.376277   -0.859523
C      -1.757893   -2.086935   -0.490502
C       0.916264   -0.625166   -0.914519
N       1.699081   -1.092652   -1.628716
H       0.651663    1.887609    0.156150
H      -0.380114    1.720543   -1.099902
H       0.304159   -1.474533    1.590538
H      -0.520324    0.083527    2.102825
H      -3.297487   -0.308303    1.083956
H      -2.828210    0.796122   -0.220454
H      -4.011771   -1.934518   -0.661173
H      -3.114685   -1.035855   -1.897460
H      -1.119771   -2.411468   -1.316133
H      -1.897431   -2.929592    0.193179
