21

C       0.399005    1.320466    0.178084
O       0.235128   -0.085791    0.192161
C      -1.097839   -0.540253   -0.015328
C      -1.740183   -0.114624   -1.355368
C      -2.559809   -1.337066   -1.794503
C      -1.659171   -2.519887   -1.406238
C      -1.051099   -2.103354   -0.050387
C      -1.939675   -0.129745    1.193154
O      -3.085265    0.238690    1.157256
H       1.446759    1.516383    0.416853
H       0.173836    1.754080   -0.805448
H      -0.231029    1.823252    0.926923
H      -2.343325    0.790384   -1.259170
H      -0.934099    0.074638   -2.073119
H      -3.497547   -1.369896   -1.229085
H      -2.814353   -1.318290   -2.857885
H      -2.193908   -3.471752   -1.351427
H      -0.862590   -2.637073   -2.149818
H      -0.014700   -2.421017    0.080904
H      -1.626070   -2.527243    0.780887
H      -1.385546   -0.234166    2.155264
