18

C      -0.060629    1.562807    0.054882
C       1.485121    1.469639    0.029256
C       1.992116    1.310085    1.463421
O       0.991351    1.370590    2.506608
C       1.479963    0.096829    2.110313
C       0.710258   -0.775973    1.134333
C       1.785559   -1.077050    0.046207
N       1.339899    0.124024   -0.725715
C      -0.001324    0.034578   -0.013056
H      -0.528073    2.057912    0.901129
H      -0.447164    1.947132   -0.891592
H       2.056358    2.203657   -0.540425
H       2.948687    1.745002    1.739101
H       2.063994   -0.428804    2.865694
H       0.163844   -1.595039    1.606685
H       2.834585   -1.107970    0.358365
H       1.563620   -1.962170   -0.557464
H      -0.796184   -0.527280   -0.512642
