21

C       0.022768    1.552343    0.255018
C      -0.003746    0.055769    0.020168
C      -1.167570   -0.609039    0.129255
C      -1.508200   -2.059679   -0.076346
C      -0.462210   -2.987201   -0.697288
C       0.877316   -2.988586    0.050447
O       1.544066   -4.198976   -0.300144
C       1.715622   -1.784667   -0.295629
C       1.311477   -0.509579   -0.313496
H       0.712896    1.814630    1.066564
H       0.374990    2.083479   -0.638410
H      -0.965819    1.940655    0.510917
H      -2.034433   -0.011764    0.410900
H      -1.830477   -2.471440    0.892686
H      -2.410979   -2.102389   -0.702139
H      -0.848344   -4.011475   -0.688301
H      -0.281763   -2.719245   -1.743010
H       0.663376   -2.981120    1.134406
H       2.383028   -4.223319    0.170906
H       2.741115   -2.007229   -0.584352
H       2.059115    0.235352   -0.581020
