19

C       0.014594    1.538108    0.038298
C       0.023495    0.021941   -0.056104
C       0.794884   -0.496664   -1.268536
O       0.871858   -1.914152   -1.257023
C       1.490737   -2.381368   -0.077588
C       0.737600   -1.893482    1.172501
O       0.636501   -0.471344    1.141702
C      -0.571077   -2.542055    1.324663
C      -1.635436   -3.082681    1.463401
H       1.035791    1.928504    0.089118
H      -0.483863    1.974813   -0.832641
H      -0.517890    1.856090    0.938075
H      -1.006067   -0.362402   -0.111052
H       0.291120   -0.219396   -2.199136
H       1.808320   -0.060105   -1.270389
H       1.498767   -3.473057   -0.126899
H       2.528157   -2.013972   -0.012767
H       1.346457   -2.116378    2.056940
H      -2.576097   -3.560225    1.586979
