20

O      -0.318583    1.446787    0.045908
C      -0.086245    0.050200    0.024851
C       0.313431   -0.669615    1.336593
C      -0.757553   -1.750251    1.016688
C      -1.419871   -0.766442    0.008233
O      -2.442872   -0.011195    0.630963
C      -1.893863   -1.333934   -1.309828
C      -3.300517   -1.773469   -1.469475
N      -2.812236   -0.563993   -2.158971
H       0.372317    1.870233    0.564248
H       0.564677   -0.223690   -0.815118
H       1.352826   -0.988384    1.438113
H       0.031175   -0.072819    2.208285
H      -0.334930   -2.627648    0.519851
H      -1.404258   -2.071837    1.833639
H      -2.130779    0.906738    0.625433
H      -1.118849   -1.862319   -1.863286
H      -3.536806   -2.610687   -2.119998
H      -3.962859   -1.640448   -0.619608
H      -3.122511    0.242274   -1.618401
