16

C       0.046370    1.516015   -0.070447
C       1.557466    1.911953    0.063006
C       2.092748    0.657447    0.659715
C       1.259444   -0.408434    0.658169
C      -0.058634   -0.047445    0.035621
C       2.010001   -1.497636    1.209615
C       3.237505   -0.978773    1.498292
O       3.310669    0.348906    1.161603
H      -0.508776    1.965624    0.757578
H      -0.394134    1.895721   -0.995354
H       2.012864    2.132091   -0.912036
H       1.695657    2.802460    0.685366
H      -0.930604   -0.347898    0.626295
H      -0.178729   -0.509035   -0.953278
H       1.700659   -2.517236    1.381015
H       4.130509   -1.393197    1.936452
