17

C       0.086806    1.269138   -0.215966
N       0.026657   -0.155901    0.049199
C      -1.216154   -0.766748    0.021791
C      -2.479589   -0.254887    0.033379
O      -3.387713   -1.264585    0.046539
N      -2.721288   -2.470806    0.023450
C      -1.442449   -2.181777    0.022005
C      -0.385732   -3.241509   -0.001171
O       0.580609   -2.992488   -1.025026
H       1.129672    1.593200   -0.210801
H      -0.366587    1.555302   -1.179389
H      -0.436671    1.815926    0.576614
H       0.721577   -0.708152   -0.436209
H      -2.885324    0.742576    0.042520
H       0.182800   -3.229596    0.934625
H      -0.852486   -4.228624   -0.102800
H       0.125267   -3.054101   -1.871934
