19

O      -0.005379   -0.005860    0.022714
C      -0.025851    1.196778   -0.006415
C      -1.278982    2.088383   -0.053301
C      -0.720436    3.519177    0.064356
C       0.635882    3.403280   -0.662708
C       1.192678    2.134256    0.007547
C       1.512529    2.493646    1.480633
C       0.250729    3.008502    2.194100
O      -0.506228    3.927903    1.414313
H      -1.767883    1.950556   -1.024763
H      -2.003313    1.816887    0.718518
H      -1.384776    4.274185   -0.359505
H       0.491391    3.266208   -1.739983
H       1.257349    4.287367   -0.502055
H       2.052401    1.674054   -0.481918
H       1.898247    1.621500    2.018717
H       2.292695    3.262964    1.485004
H      -0.378062    2.152566    2.485263
H       0.510699    3.541312    3.112735
