17

C      -0.744736    1.253150   -0.075806
C       0.004114   -0.070072   -0.025113
C       1.360837   -0.168064   -0.745991
O       1.867132    0.429480   -1.654452
C       1.981644   -1.016899    0.374725
O       3.307821   -0.776610    0.737116
C       0.801756   -0.495695    1.228600
C       0.878569    0.138304    2.540771
O       0.274765   -1.157558    2.353370
H      -0.097379    2.083486    0.221019
H      -1.099570    1.452752   -1.090866
H      -1.612059    1.235686    0.590969
H      -0.642898   -0.901139   -0.336405
H       1.832483   -2.090926    0.187686
H       3.630655   -0.053702    0.184818
H       1.827502    0.134980    3.072965
H       0.186870    0.936927    2.802204
