20

C       0.042202    1.600289    0.200020
C      -0.078685    0.082969    0.360429
C      -1.465655   -0.484613    0.102695
C      -2.683409    0.334342    0.190822
O      -2.128460   -0.031570   -1.081019
C      -1.628673   -2.002809    0.299444
C      -0.741061   -2.830667   -0.652187
C      -1.396718   -2.371477    1.700028
N      -1.204770   -2.653355    2.804524
H       1.092152    1.901543    0.245005
H      -0.362820    1.920718   -0.763909
H      -0.486363    2.136940    0.993446
H       0.615614   -0.404808   -0.334382
H       0.233001   -0.218992    1.367356
H      -3.632809   -0.138121    0.439056
H      -2.616587    1.390544    0.436360
H      -2.675173   -2.235225    0.072139
H      -0.918260   -2.501995   -1.679226
H       0.319305   -2.712725   -0.419128
H      -0.987340   -3.892183   -0.575448
