17

C      -0.210011    0.430634   -0.895936
N      -0.017296   -0.442226    0.242255
C      -1.139276   -0.705216    1.162942
C      -0.128239   -0.720704    2.334491
C       0.847574   -0.010091    1.342846
C       2.266641   -0.531157    1.299731
O       3.229831    0.057027    1.720147
C       2.417229   -1.889751    0.721854
N       2.591335   -2.955021    0.307084
H       0.738540    0.569216   -1.424472
H      -0.915935   -0.031099   -1.593067
H      -0.600298    1.426049   -0.615926
H      -1.846209    0.136494    1.235279
H      -1.698086   -1.622455    0.954772
H      -0.380762   -0.162075    3.234286
H       0.199464   -1.726707    2.602049
H       0.895292    1.076587    1.509384
