18

C      -0.578697   -1.207470   -0.285368
C      -0.241344   -0.071975   -0.072162
C      -0.007892    1.340524    0.074264
C       0.486625    2.105090    1.245429
C       1.670530    1.521794    2.032805
C       1.836635   -0.018847    2.186210
C       2.624553   -0.053379    0.831957
C       2.429803    1.479882    0.692641
N       1.263911    2.105431   -0.071000
H      -0.841637   -2.223763   -0.446784
H      -0.770366    1.899752   -0.469411
H      -0.060761    2.987293    1.569056
H       1.992263    2.152787    2.860657
H       2.449576   -0.289052    3.049164
H       0.914681   -0.598835    2.219205
H       3.680336   -0.307198    0.960448
H       2.214661   -0.675271    0.038365
H       3.315228    2.083335    0.492921
