19

O       0.060318    1.361312   -0.153546
C       0.048525   -0.042757   -0.026568
C      -1.381617   -0.583106    0.046281
O      -2.014281   -0.133097   -1.149193
C      -3.292057   -0.725561   -1.347149
C      -3.130052   -2.219641   -1.627824
O      -2.636635   -2.456526   -2.944702
C      -2.223246   -2.832738   -0.586003
C      -1.436328   -2.079629    0.180771
H      -0.549412    1.566907   -0.872342
H       0.566885   -0.536123   -0.864824
H       0.584340   -0.290752    0.895504
H      -1.876956   -0.108419    0.913806
H      -3.934425   -0.561413   -0.467500
H      -3.738533   -0.227922   -2.211569
H      -4.115291   -2.699731   -1.603005
H      -1.773414   -2.027831   -2.987644
H      -2.216109   -3.915760   -0.505381
H      -0.794759   -2.523225    0.938724
