16

C      -0.304845    1.480442    0.087482
C      -0.020252   -0.003503    0.092058
C       1.310677   -0.553994   -0.288373
C       0.866854   -0.673079    1.161225
C       1.556750    0.155282    2.182306
O       2.177308    1.172606    1.930219
C       1.441063   -0.328353    3.550276
C       1.345585   -0.738424    4.678160
H       0.566695    2.053284    0.408809
H      -0.576589    1.804096   -0.923232
H      -1.140493    1.725149    0.751748
H      -0.873916   -0.623522   -0.169974
H       1.369321   -1.470481   -0.864476
H       2.110674    0.158679   -0.459867
H       0.529652   -1.640738    1.513670
H       1.270569   -1.084656    5.680354
