20

C       0.070106    1.374511    0.092197
O       0.032027   -0.031305    0.077385
C      -1.276852   -0.544976   -0.037064
C      -1.183415   -2.066307   -0.065699
C      -2.556830   -2.777486   -0.042204
C      -3.409501   -2.488980   -1.295949
C      -2.372567   -4.218553    0.127798
C      -2.210573   -5.403850    0.247209
H       1.117533    1.673362    0.180170
H      -0.345780    1.806198   -0.832555
H      -0.490629    1.791122    0.944498
H      -1.895624   -0.215051    0.817455
H      -1.757184   -0.154557   -0.949622
H      -0.624228   -2.379824   -0.954164
H      -0.599872   -2.385798    0.803189
H      -3.109867   -2.407589    0.833720
H      -4.351720   -3.041185   -1.254631
H      -3.642932   -1.423819   -1.377346
H      -2.876582   -2.796442   -2.200998
H      -2.072678   -6.450174    0.363392
