16

C       0.109004    1.452609    0.067922
N      -0.188238    0.045932   -0.141239
C       0.498856   -0.691355   -1.072261
C       0.688845   -2.068311   -1.227623
C       0.219161   -3.096853   -0.326530
O       0.370574   -4.293636   -0.441435
N       1.416543   -2.308099   -2.388747
C       1.658895   -1.146719   -2.906253
N       1.125970   -0.116502   -2.143547
H       1.169406    1.647013    0.287974
H      -0.178406    2.041981   -0.810905
H      -0.489822    1.816023    0.904746
H      -0.419941   -0.471391    0.691676
H      -0.336249   -2.685794    0.556738
H       2.208347   -0.945137   -3.813812
H       1.170960    0.866827   -2.350816
