20

C      -0.112458    1.617057    0.054799
C      -0.115641    0.087453    0.096352
C       0.838967   -0.478420    1.160208
C       0.856633   -1.980355    1.180742
C      -0.141882   -2.860068    1.952908
C       1.317615   -3.022091    2.177657
O       1.871529   -3.851274    1.118960
C       1.536578   -2.869977    0.185180
N       1.810529   -2.782018   -1.034756
H       0.886243    2.004694   -0.175015
H      -0.798548    1.994240   -0.709610
H      -0.418942    2.043497    1.016983
H      -1.130948   -0.277829    0.295805
H       0.172239   -0.316214   -0.880568
H       1.854567   -0.109304    0.968855
H       0.552793   -0.106563    2.152709
H      -0.687032   -2.320972    2.722840
H      -0.697027   -3.650403    1.457231
H       1.876835   -2.955539    3.100678
H       2.346425   -3.590299   -1.355437
