18

O      -0.054547    1.411721    0.029811
C       0.007176    0.002520   -0.038251
C      -1.369096   -0.602918   -0.369010
C      -1.654168   -0.003573   -1.767748
C      -0.239999   -0.003596   -2.435085
C       0.640577   -0.589413   -1.316817
O       0.354999   -1.984877   -1.174645
C      -0.949891   -2.067328   -0.556662
H       0.838816    1.745007    0.158319
H       0.452075   -0.430313    0.867973
H      -2.153998   -0.451185    0.372687
H      -2.382238   -0.604607   -2.319530
H      -2.049274    1.009775   -1.680199
H      -0.184408   -0.632333   -3.326416
H       0.077419    1.007083   -2.703811
H       1.718685   -0.473970   -1.446879
H      -0.864480   -2.610522    0.393688
H      -1.635010   -2.621839   -1.209874
