16

C      -0.059994    1.423356    0.027140
N      -0.007355   -0.025195    0.011496
C       0.002722   -0.801825   -1.110210
N      -0.094856   -0.211878   -2.371634
C       0.023205   -2.137315   -0.731794
C       0.031496   -2.170038    0.676860
C       0.024584   -0.861598    1.129321
C       0.044220   -0.348348    2.437884
N       0.056667    0.095793    3.511220
H       0.921108    1.867176   -0.180437
H      -0.773285    1.770030   -0.725071
H      -0.384575    1.756753    1.013412
H       0.616184    0.486982   -2.556070
H      -0.080389   -0.904786   -3.107813
H       0.037113   -2.981022   -1.403931
H       0.052794   -3.042881    1.309907
