14

C       0.025793   -1.135194   -0.004748
C       0.046015    0.064924    0.002463
C       0.023558    1.518028    0.011751
O       1.373156    2.005018   -0.001207
C       1.488759    3.334618    0.005600
N       0.459286    4.170138    0.022954
N       1.100235    5.374884    0.022762
C       2.431762    5.193303    0.005847
N       2.722361    3.906822   -0.005516
H       0.015319   -2.197170   -0.011220
H      -0.514912    1.908362   -0.860971
H      -0.494037    1.897415    0.901761
H       0.564344    6.226140    0.034350
H       3.141280    6.007152    0.002436
