11

F      -0.005022    0.084991    0.003451
C      -0.014995    1.395997    0.010505
N      -1.205198    1.963507    0.029975
C      -1.159464    3.304969    0.036525
N      -0.034069    4.036549    0.024756
C       1.084688    3.318220    0.005503
N       1.168867    1.986132   -0.002702
C      -2.405045    4.004374    0.057194
C      -3.451537    4.595103    0.074564
H       2.023378    3.866298   -0.004595
H      -4.377296    5.117079    0.089943
