23

C       0.767962    1.854130    0.005365
C       0.804715    0.339447   -0.224670
C       0.754463   -0.460349    1.071430
C      -0.555841   -0.449752    1.913644
C      -0.430893   -1.985550    2.135882
C      -1.609900   -2.853641    1.655679
C      -1.291351   -3.069671    0.192412
C      -0.077976   -2.628407   -0.144596
C       0.665275   -2.022598    1.016895
H       1.623568    2.185133    0.604941
H       0.792824    2.402886   -0.941379
H      -0.141926    2.152022    0.537758
H      -0.037987    0.043550   -0.862458
H       1.715616    0.075239   -0.779100
H       1.603959   -0.174922    1.704071
H      -0.561403    0.177577    2.808371
H      -1.434105   -0.194335    1.310981
H      -0.082408   -2.242910    3.137495
H      -1.675659   -3.811481    2.190703
H      -2.575660   -2.352790    1.806538
H      -1.985371   -3.553965   -0.487132
H       0.351282   -2.705198   -1.138358
H       1.607903   -2.544656    1.217312
