21

C      -0.222663    1.483156   -0.077316
C      -0.088834   -0.031257    0.090775
C       0.865985   -0.419320    1.234823
O       0.455940    0.168177    2.461953
C       1.022841   -1.936587    1.301912
C       1.622980   -2.789908    2.407974
C       1.141366   -2.349998    3.786736
O      -0.251560   -2.341109    3.338601
C       0.148644   -2.883004    2.063313
H       0.736700    1.935419   -0.353668
H      -0.946906    1.733425   -0.858356
H      -0.548783    1.941530    0.859379
H      -1.071923   -0.476759    0.295193
H       0.269357   -0.484682   -0.842952
H       1.853081    0.016276    1.021031
H      -0.215992   -0.415532    2.842083
H       1.286671   -2.356698    0.331403
H       2.425213   -3.492371    2.225469
H       1.273924   -3.124326    4.549588
H       1.459427   -1.375627    4.162189
H      -0.469766   -3.671932    1.649775
