19

C       0.153836    1.543771   -0.063810
C       0.097413    0.089422   -0.040541
C       0.039957   -1.114349   -0.020321
C       0.027180   -2.568669   -0.000984
O       0.885211   -3.115893   -0.985350
C       0.121224   -3.205915    1.419148
O      -1.255359   -3.614463    1.373023
C      -1.370014   -3.264784   -0.025531
C      -2.622157   -2.480714   -0.339473
H       1.144348    1.908239    0.229536
H      -0.064238    1.935184   -1.063302
H      -0.576296    1.975232    0.629414
H       1.626449   -2.512485   -1.100428
H       0.814944   -4.056625    1.432795
H       0.326484   -2.532590    2.257349
H      -1.295420   -4.160714   -0.657791
H      -2.668148   -1.564504    0.254346
H      -2.646376   -2.214621   -1.401264
H      -3.505419   -3.087590   -0.117213
