19

C       0.151163    1.794465   -0.575813
C       0.085056    0.282436   -0.547018
C       0.615336   -0.637394   -1.570051
C       1.961883   -0.174747   -2.130270
C       2.486724   -0.283985   -0.676076
C       3.243563    0.880653   -0.021392
C       3.532625    0.635423    1.390775
N       3.768610    0.443024    2.505277
N       1.139673   -0.675522   -0.129032
H       0.924768    2.189254   -1.237813
H      -0.807572    2.181265   -0.937150
H       0.311149    2.202690    0.427692
H      -0.846559   -0.069345   -0.106384
H       0.036479   -1.459803   -1.978167
H       2.431683   -0.886737   -2.809881
H       1.971140    0.812511   -2.602780
H       3.110950   -1.175832   -0.574087
H       4.195775    1.017357   -0.549017
H       2.698639    1.822885   -0.105324
