17

C       0.018407    1.454204    0.039548
C       0.784454    0.260168   -0.495854
O      -0.142974   -0.816640   -0.667769
C       0.375442   -1.959557   -1.139078
C       1.648836   -2.352102   -1.511582
C       1.460392   -3.696565   -1.912486
O       2.439754   -4.507804   -2.364544
N       0.211809   -4.112813   -1.807723
N      -0.449117   -3.012930   -1.323050
H      -0.765903    1.755870   -0.660009
H      -0.446960    1.216213    0.999921
H       0.698398    2.298693    0.183444
H       1.254909    0.486773   -1.461595
H       1.574085   -0.053326    0.199514
H       2.560567   -1.782701   -1.501758
H       2.026553   -5.358207   -2.561506
H      -1.436576   -3.050884   -1.145355
