16

N       0.228534   -1.108950   -0.185852
C       0.092900    0.036732   -0.113784
C      -0.067368    1.476730   -0.012086
C      -0.227082    2.132318    1.427962
C       0.694649    3.307814    0.927039
O       1.841956    3.746237    1.617028
C       2.997484    3.332693    0.855974
C       2.490911    2.276315   -0.115585
C       1.167879    2.353980   -0.118821
H      -0.882192    1.801100   -0.667067
H      -1.247097    2.373819    1.731616
H       0.275740    1.531133    2.185685
H       0.090437    4.162881    0.593053
H       3.452475    4.207000    0.365757
H       3.741998    2.913441    1.544333
H       3.126938    1.525832   -0.565826
