16

O      -0.088519    1.377139    0.107308
C       0.029434   -0.010179    0.012625
C       0.297548   -0.665539   -1.370034
N      -0.880093   -1.587627   -1.197625
C      -0.852944   -2.184205    0.188987
C      -1.317582   -0.789062   -0.021478
C       0.422551   -2.171010    0.984400
O       0.945019   -3.122395    1.506112
C       0.885427   -0.709136    1.071443
H       0.793133    1.759325    0.173726
H       0.064249    0.013320   -2.192886
H       1.260995   -1.158307   -1.543653
H      -1.527245   -3.026065    0.286916
H      -2.321874   -0.407563    0.117252
H       1.965325   -0.621041    0.916277
H       0.641182   -0.325271    2.069846
