14

C      -0.023930    1.516109    0.005664
C      -0.005105    0.015645   -0.030128
C      -0.050533   -0.727153   -1.168361
N      -0.035018   -2.098440   -1.230808
C       0.028669   -2.689353   -0.093088
O       0.050019   -4.015553   -0.021596
O       0.079550   -2.107425    1.109242
C       0.066151   -0.676420    1.235810
O       0.114301   -0.236123    2.346919
H       0.873499    1.909759    0.494374
H      -0.078858    1.927663   -1.005246
H      -0.880008    1.885735    0.579851
H      -0.104601   -0.231671   -2.134433
H       0.098967   -4.269036    0.910130
