17

C       0.002343   -1.261469    0.029156
C      -0.027827   -0.059827    0.050816
C      -0.021070    1.397290    0.071207
C       1.404641    1.993928   -0.068020
C       1.409153    3.492631   -0.038403
C       1.462614    4.366035   -1.108293
N       1.412066    5.618312   -0.592489
N       1.330421    5.634925    0.750312
C       1.326316    4.348938    1.087499
H       0.012840   -2.322936    0.013139
H      -0.651621    1.784402   -0.738593
H      -0.472515    1.757935    1.003598
H       2.026171    1.596197    0.741203
H       1.844670    1.631600   -1.002352
H       1.538677    4.190551   -2.170284
H       1.443239    6.492094   -1.089395
H       1.271468    4.071457    2.130915
