22

C       0.714377    1.130114   -0.628119
C      -0.071373   -0.072266   -0.084419
C      -0.149286   -1.203564   -1.113146
O      -0.840426   -0.717712   -2.255280
C       0.569480   -0.584493    1.191254
C       0.310482   -0.098357    2.561583
C      -1.151092    0.280990    2.793760
C      -1.499872   -1.145801    2.304861
N      -0.047427   -1.528266    2.153994
H       1.763058    0.862637   -0.805981
H       0.286610    1.466131   -1.574896
H       0.698433    1.963588    0.080678
H      -1.099298    0.253084    0.105852
H       0.871141   -1.531247   -1.373543
H      -0.667186   -2.068146   -0.670876
H      -0.855066   -1.414158   -2.917702
H       1.607498   -0.881982    1.035864
H       1.117722    0.104029    3.259649
H      -1.386839    0.431108    3.848679
H      -1.535675    1.134350    2.226983
H      -1.951704   -1.771275    3.077009
H      -2.092059   -1.241810    1.389781
