12

C      -0.015439   -1.189592   -0.003827
C      -0.032448    0.012792    0.003267
C      -0.018177    1.424397    0.011096
N      -1.132420    2.169854    0.029163
N      -0.664986    3.406554    0.030399
N       0.647638    3.563726    0.014985
C       1.103995    2.303114    0.002105
C       2.477699    1.978350   -0.016823
C       3.640848    1.673570   -0.032946
H      -0.004142   -2.251531   -0.010106
H      -1.286434    4.200306    0.042645
H       4.668995    1.407861   -0.046902
