20

C      -0.004898    1.428670    0.078648
C       0.047285   -0.087991    0.093606
O       1.100171   -0.706857    0.238308
N      -1.137407   -0.713126   -0.070053
C      -2.509101   -0.255959   -0.305196
C      -2.931393   -1.745454   -0.444886
C      -1.485687   -2.148841   -0.031177
C      -0.692955   -3.062528   -0.960483
O       0.582087   -3.368333   -0.463214
H       1.007974    1.812087    0.195384
H      -0.426121    1.797554   -0.862397
H      -0.633950    1.807720    0.890864
H      -2.951699    0.266341    0.551617
H      -2.633207    0.366528   -1.197699
H      -3.726748   -2.079544    0.220544
H      -3.175879   -2.029012   -1.470684
H      -1.412910   -2.546813    0.988551
H      -1.243212   -4.007981   -1.057083
H      -0.659942   -2.601176   -1.964226
H       0.990758   -2.520279   -0.206980
