19

C      -0.038339    1.401418    0.077588
N      -0.007279   -0.002664   -0.261480
C      -1.176712   -0.837930    0.054773
C      -0.651276   -2.289976   -0.083368
C       0.855223   -2.096013    0.016132
C       1.114612   -0.776385   -0.100529
C       1.904283   -3.110511    0.118097
N       1.459220   -4.419980    0.170967
O       3.096175   -2.844259    0.197421
H       0.909078    1.867855   -0.203586
H      -0.841172    1.903462   -0.472297
H      -0.204520    1.572830    1.154419
H      -1.503493   -0.634864    1.087724
H      -2.013657   -0.609009   -0.611574
H      -1.066880   -2.943547    0.690111
H      -0.940542   -2.715760   -1.055442
H       2.096458   -0.321385   -0.111637
H       0.550873   -4.656894   -0.192937
H       2.178892   -5.118073    0.064612
