18

O       0.052079   -0.032678   -0.358267
C       0.017629    1.130478   -0.030456
C      -1.296984    1.867776    0.205173
C      -1.227629    3.038364    1.165794
C      -0.602708    2.832183    2.523358
C       0.119183    3.648870    1.470278
N       1.313143    3.230236    0.761207
C       2.087469    2.100623    1.259576
C       1.269801    1.970062    0.017845
H      -1.585906    2.238005   -0.790420
H      -2.055523    1.134421    0.495943
H      -2.072175    3.718126    1.106875
H      -1.006141    3.364252    3.377626
H      -0.250899    1.833051    2.759441
H       0.133366    4.719842    1.646229
H       3.166297    2.195102    1.173507
H       1.748597    1.586836    2.154867
H       1.793675    1.979939   -0.936891
