20

C      -0.347017    1.358165    0.127435
N       0.055603   -0.039569    0.118783
C       1.427009   -0.342446   -0.270040
C       0.976546   -0.563898    1.134187
C       1.542202    0.270972    2.264746
C       0.619146    0.279876    3.504678
N       0.509513   -1.066178    4.070478
C       1.090294    1.283004    4.485502
N       1.471151    2.034837    5.277456
H       0.449435    2.072699    0.389714
H      -0.705309    1.619776   -0.873281
H      -1.179407    1.497267    0.825742
H       1.565005   -1.177549   -0.952159
H       2.100829    0.498004   -0.441919
H       0.725099   -1.576662    1.439192
H       2.515197   -0.138819    2.564937
H       1.728391    1.300492    1.949688
H      -0.384752    0.584819    3.186987
H       1.398081   -1.339889    4.481296
H      -0.173334   -1.078915    4.821668
