21

C       0.116713    1.468058   -0.071506
C      -0.030847   -0.001675    0.338871
C      -1.435821   -0.565765    0.100220
C      -2.520313    0.156156    0.887333
O      -1.749226   -0.567605   -1.323938
C      -1.815601   -2.000639   -1.366108
C      -1.571287   -2.137299    0.150760
C      -0.380933   -2.950574    0.582097
O      -0.344360   -3.619918    1.583410
H       1.164182    1.777290   -0.012873
H      -0.222752    1.609532   -1.101659
H      -0.459808    2.136757    0.573848
H       0.685364   -0.596241   -0.237997
H       0.229072   -0.133984    1.397137
H      -2.568877    1.209610    0.599430
H      -3.498180   -0.291067    0.690052
H      -2.321143    0.098342    1.962810
H      -2.786676   -2.363704   -1.720324
H      -1.026347   -2.431976   -1.997937
H      -2.435625   -2.461103    0.731770
H       0.494831   -2.907545   -0.105550
