15

C      -0.036588    1.548384   -0.019719
C      -0.000731    0.045559   -0.037308
C      -0.086595   -0.710876   -1.196933
C      -0.046759   -2.106737   -1.140877
C       0.080330   -2.704392    0.101800
N       0.165932   -2.006356    1.242610
C       0.125463   -0.685687    1.159287
O       0.212851    0.009582    2.317187
H       0.874881    1.961673    0.425603
H      -0.138788    1.949072   -1.031514
H      -0.871934    1.918142    0.584724
H      -0.185515   -0.205227   -2.153278
H      -0.112921   -2.707772   -2.039817
H       0.116370   -3.785857    0.202411
H       0.292423   -0.654999    3.015740
