19

C       0.257051   -0.231509    1.568210
N      -0.081505   -0.168386    0.150204
C       0.966286   -0.760670   -0.677478
C      -1.430132   -0.663063   -0.126738
C      -1.982128   -0.130060   -1.462442
N      -2.048539    1.324164   -1.378451
C      -1.527065   -2.142331   -0.068106
N      -1.549777   -3.297333   -0.017600
H       1.219283    0.263014    1.729952
H      -0.500045    0.298284    2.153794
H       0.335175   -1.263734    1.951468
H       1.118880   -1.834826   -0.479807
H       0.733315   -0.638467   -1.737904
H       1.906545   -0.238217   -0.480067
H      -2.082260   -0.260496    0.656141
H      -1.375501   -0.525377   -2.293455
H      -2.992508   -0.531893   -1.595022
H      -1.121320    1.677017   -1.160858
H      -2.323939    1.716875   -2.272171
