19

O      -0.568534    1.371572    0.873606
C       0.121910    1.203497   -0.099427
C       1.456022    1.869983   -0.335800
C       1.326031    2.961827   -1.403336
C       0.486991    4.239277   -1.064396
C       1.701697    5.138514   -1.427819
C       2.653587    5.410170   -0.253810
O       3.319164    4.134902   -0.439956
C       2.567261    3.863127   -1.638784
H      -0.218994    0.541911   -0.931399
H       1.820254    2.302857    0.598305
H       2.174848    1.113550   -0.678780
H       0.999348    2.525888   -2.354736
H      -0.387402    4.378772   -1.703100
H       0.163177    4.313224   -0.022322
H       1.558609    5.921049   -2.170849
H       3.351822    6.242188   -0.410872
H       2.199632    5.503199    0.740360
H       3.216334    3.647720   -2.492658
