13

O       0.019787    0.034551    0.004457
C      -0.008778    1.233744    0.010712
C      -1.275968    2.108291    0.032338
C      -0.740261    3.507455    0.031528
C       0.602318    3.542404    0.013319
C       1.218732    2.161851   -0.001551
C       1.389837    4.725745    0.008063
N       2.059231    5.671065    0.003315
H      -1.907439    1.883729   -0.836801
H      -1.883130    1.875500    0.916512
H      -1.370514    4.387929    0.044255
H       1.856379    1.963170    0.867576
H       1.832630    1.971437   -0.889419
