20

C       0.115470    1.313691    0.112928
O      -0.100563   -0.058905   -0.164605
C      -1.432154   -0.577352   -0.018611
C      -2.157517   -0.073139    1.228981
C      -2.214884   -0.231842   -1.301689
O      -1.517704   -0.641470   -2.457798
C      -1.218398   -2.109067    0.036266
C      -0.413252   -2.530363    1.178481
N       0.206026   -2.865888    2.094480
H       1.153552    1.516890   -0.159576
H      -0.535110    1.974727   -0.476382
H      -0.017181    1.545146    1.176231
H      -2.359130    0.999737    1.173897
H      -3.119816   -0.584377    1.329263
H      -1.571134   -0.274375    2.129403
H      -3.183649   -0.742401   -1.306326
H      -2.417167    0.851198   -1.313898
H      -0.605556   -0.349939   -2.327930
H      -2.188635   -2.615072    0.080521
H      -0.732068   -2.422585   -0.891296
