20

C      -0.252606    1.337686   -0.638358
C      -0.019813   -0.054632   -0.082365
O      -1.296898   -0.708617   -0.007396
C      -1.310777   -1.954304    0.506213
N      -0.239217   -2.534076    0.875156
C      -2.710132   -2.479488    0.566438
C      -3.364100   -3.004040   -0.711029
C      -3.000723   -3.950596    0.393938
O      -1.993024   -4.911330    0.255360
H       0.699111    1.872134   -0.713779
H      -0.701729    1.291425   -1.634707
H      -0.919575    1.911426    0.011518
H       0.647993   -0.644875   -0.718981
H       0.429378   -0.031299    0.916012
H      -0.459190   -3.451979    1.257029
H      -3.354969   -1.919148    1.237460
H      -4.405737   -2.771152   -0.902139
H      -2.741851   -3.018697   -1.601430
H      -3.803622   -4.363881    0.994922
H      -1.357575   -4.602023   -0.398993
