19

C      -0.001832    1.526038    0.190598
C      -0.005367    0.008458    0.009505
C       0.701704   -0.461032   -1.287517
O       2.053340    0.001390   -1.181266
C       0.674452   -1.934986   -1.359222
C       0.673130   -3.135917   -1.402576
C       0.053968    0.092514   -2.490100
C      -0.449974    0.546948   -3.484905
C      -1.063125    1.092346   -4.687025
H       1.019898    1.911098    0.216816
H      -0.532594    2.022320   -0.626996
H      -0.496092    1.794320    1.129070
H       0.515616   -0.479129    0.839662
H      -1.027420   -0.381335   -0.009072
H       2.504744   -0.240412   -1.997589
H       0.670225   -4.197114   -1.446456
H      -1.044280    0.366545   -5.507222
H      -2.108694    1.365279   -4.507670
H      -0.538748    1.992735   -5.025163
