18

O      -0.089345    1.315654   -0.021435
N       0.017694   -0.089825   -0.054504
C      -1.125460   -0.644303    0.038084
C      -2.480525   -0.000002    0.230807
C      -3.326818   -1.084575    0.952208
O      -4.685467   -1.120919    0.543621
C      -2.654668   -2.410438    0.631745
C      -2.365721   -2.693329   -0.811103
C      -1.270275   -2.120045    0.072459
H       0.834258    1.585975   -0.050396
H      -2.398984    0.935959    0.786689
H      -2.939900    0.235323   -0.736597
H      -3.263182   -0.922326    2.039101
H      -5.105911   -0.304750    0.832771
H      -2.821434   -3.241877    1.305937
H      -2.251655   -3.732828   -1.096391
H      -2.813173   -2.067641   -1.574838
H      -0.402213   -2.724651    0.300666
