19

C       0.141200    1.540183    0.165165
C      -0.086139    0.034016   -0.050304
C       0.627748   -0.506823   -1.252080
C       0.112561   -0.974106   -2.442774
N       1.157819   -1.343096   -3.221439
N       2.357910   -1.150031   -2.617853
C       2.030124   -0.647110   -1.436525
O       2.937520   -0.305400   -0.501202
C       4.299341   -0.524512   -0.852191
H       1.207718    1.753036    0.279909
H      -0.227520    2.117777   -0.688471
H      -0.376509    1.890119    1.064185
H       0.248380   -0.504668    0.845132
H      -1.159043   -0.167775   -0.147215
H      -0.908252   -1.070716   -2.780053
H       1.138006   -1.731306   -4.147051
H       4.888270   -0.201993    0.007824
H       4.485334   -1.583276   -1.061920
H       4.575331    0.056833   -1.738504
