18

O       0.053697    0.031542    0.003164
C      -0.034291    1.229088    0.010290
C      -1.185188    2.272226    0.032350
C      -0.057325    3.322461    0.021941
N       0.906193    2.234302    0.001446
C       0.141499    4.584135   -0.750858
C      -1.138042    5.428023   -0.733047
C      -1.115259    5.418755    0.832858
C       0.164146    4.575001    0.803419
H      -1.822748    2.250214   -0.853344
H      -1.797044    2.240452    0.935701
H       1.915042    2.212669   -0.011198
H       0.963393    4.688813   -1.450413
H      -0.990833    6.430704   -1.139281
H      -2.012513    4.983073   -1.218753
H      -0.956131    6.416586    1.246471
H      -1.975289    4.967923    1.338520
H       1.006083    4.671620    1.479925
