14

C      -0.070151    1.614917   -0.022767
C       0.014293    0.075882    0.018806
O       0.689333   -0.345701    1.227768
C       2.042898   -0.231726    1.308800
O       2.621375   -0.453919    2.325548
C      -1.320627   -0.520901    0.064590
C      -2.430519   -0.973989    0.088830
C       0.718696   -0.425991   -1.187875
N       1.266728   -0.787511   -2.138155
H       0.931996    2.047266   -0.073989
H      -0.641710    1.936900   -0.895360
H      -0.569405    1.956661    0.885600
H       2.522727    0.058636    0.359020
H      -3.408835   -1.389184    0.114033
