22

C       0.150014    1.113598    0.016402
O       0.071718   -0.255478   -0.322169
C      -1.185873   -0.830089   -0.056828
C      -1.392743   -2.224166   -0.627229
C      -0.544076   -3.261084   -0.004871
C       0.918451   -3.148146    0.374861
N      -1.731679   -2.810565    0.752833
C      -1.512843   -1.439582    1.349154
C      -0.587372   -1.303579    2.547778
H       1.145869    1.460993   -0.268545
H      -0.602638    1.704746   -0.527885
H       0.010642    1.285620    1.093161
H      -1.977296   -0.138122   -0.376985
H      -2.010702   -2.427219   -1.496566
H      -0.779624   -4.252379   -0.392935
H       1.245526   -2.118455    0.500316
H       1.127939   -3.715374    1.288213
H       1.519183   -3.587893   -0.429093
H      -2.510612   -1.102354    1.648197
H       0.468771   -1.385068    2.291867
H      -0.742499   -0.335891    3.036999
H      -0.822805   -2.084862    3.278632
