15

O       0.010166    1.462929   -0.062452
C       0.073154    0.062632    0.010563
C       0.005052   -0.610135    1.401163
C      -1.527891   -0.294202    1.542977
C      -1.296767   -0.626866    0.016358
C      -0.720349   -1.885957    0.755579
O      -0.148637   -2.953298    0.116842
C      -1.807743   -1.771675    1.823050
O      -2.472260   -2.474451    2.522632
H       0.906852    1.811030   -0.075298
H       0.815852   -0.350265   -0.683863
H       0.723106   -0.632863    2.221064
H      -1.959396    0.615095    1.942679
H      -2.071223   -0.646867   -0.749307
H      -0.022481   -3.660721    0.759275
