20

C       0.234822    1.467013    0.251069
C      -0.209923    0.044131   -0.115470
C       0.477074   -0.471616   -1.346100
C       0.176038   -0.078692   -2.804013
C       0.517606   -1.536732   -3.249145
C       0.814954   -1.892641   -1.778866
N       1.834693   -0.987119   -1.228481
C       0.570844   -3.151712   -1.157383
C       0.330221   -4.222687   -0.664244
H       1.312822    1.496802    0.436949
H       0.010990    2.176541   -0.553046
H      -0.275338    1.816101    1.153679
H       0.009872   -0.639397    0.711197
H      -1.295430    0.019961   -0.273249
H      -0.874206    0.170092   -2.975349
H       0.796146    0.726866   -3.211235
H      -0.349921   -2.066762   -3.646448
H       1.358932   -1.671277   -3.936922
H       2.463904   -0.642780   -1.953106
H       0.131388   -5.165716   -0.218970
