16

O       0.209131    1.113974   -0.552486
C       0.003793    0.025141    0.330924
C      -1.410815   -0.524118    0.233047
C      -1.877960   -1.141985   -1.048133
O      -0.911758   -1.262824   -2.059830
C      -1.640061   -2.043039    0.164487
O      -0.540041   -2.892429    0.106687
C      -2.779215   -2.602717    0.847882
N      -3.716186   -3.015075    1.386554
H       0.142509    0.760976   -1.446845
H       0.728576   -0.780454    0.165666
H       0.171303    0.411159    1.340045
H      -2.171849    0.039429    0.763002
H      -2.893689   -0.964852   -1.388502
H      -1.295641   -1.749570   -2.797226
H      -0.207290   -2.844219   -0.801333
