18

C       0.517829    1.306768   -0.178091
N       0.408380   -0.141381   -0.124752
C       0.614086   -0.739591    0.973557
C       0.977338   -0.108176    2.295048
N       0.395281   -2.156627    0.964472
C       1.239617   -3.060628    1.613128
N       2.302578   -2.692124    2.202335
C      -0.657898   -2.672528    0.194231
O      -0.890198   -3.849436    0.070653
H       1.429408    1.686616    0.300665
H       0.523154    1.621255   -1.224185
H      -0.340407    1.789833    0.309281
H       0.785438   -0.778034    3.130950
H       2.041083    0.144060    2.319717
H       0.401984    0.813395    2.425542
H       0.862303   -4.079374    1.514017
H       2.770924   -3.501215    2.606716
H      -1.245456   -1.868009   -0.267293
