20

O      -0.045551    1.400649   -0.086536
C      -0.021045   -0.014436   -0.189712
C      -1.425804   -0.520624    0.116059
C      -1.533589   -2.043929    0.091080
O      -0.663813   -2.662372    1.047916
C      -2.972418   -2.525562    0.302262
N      -3.018528   -3.973904    0.330566
C      -3.950248   -4.704279   -0.333246
O      -4.877297   -4.246745   -0.969077
H       0.842116    1.729788   -0.254662
H       0.274614   -0.338257   -1.201105
H       0.693392   -0.461161    0.516561
H      -1.730072   -0.143235    1.102487
H      -2.126497   -0.091049   -0.609223
H      -1.181345   -2.426610   -0.874763
H      -0.848116   -2.265210    1.907787
H      -3.363490   -2.104143    1.241533
H      -3.628696   -2.189137   -0.503962
H      -2.251989   -4.439109    0.792598
H      -3.769603   -5.792471   -0.226017
