15

C       0.042750    1.525101    0.011083
C       0.038300    0.026414    0.009732
C       0.036963   -0.808988   -1.087665
O       0.038896   -0.605428   -2.421193
N       0.032765   -2.085487   -0.627946
N       0.031245   -2.162813    0.711389
C       0.034533   -0.886839    1.108845
C       0.034137   -0.530858    2.536298
O       0.030920   -1.309789    3.459138
H       0.927470    1.935801    0.509208
H       0.042208    1.925880   -1.009786
H      -0.837943    1.940910    0.512049
H       0.041636    0.342211   -2.592750
H       0.030871   -2.925975   -1.183274
H       0.037173    0.568463    2.716694
