17

C       0.062735    1.527987   -0.247756
C       0.045970    0.034243   -0.038753
N       1.360055   -0.647898   -0.013439
C       0.545011   -0.610367    1.196950
C       1.008875    0.045852    2.510393
C       0.293939   -1.098100    3.253426
O       0.076966   -1.333017    4.405203
C      -0.070835   -1.814790    1.935057
H       0.908395    1.980304    0.276992
H       0.159327    1.770226   -1.311305
H      -0.862184    1.985587    0.120191
H      -0.764972   -0.490304   -0.544395
H       1.296306   -1.562248   -0.455307
H       2.094386    0.043851    2.654304
H       0.628022    1.047442    2.731965
H      -1.137825   -2.007990    1.787881
H       0.475993   -2.756986    1.809251
