17

O      -0.029768    0.019650    0.108282
C      -0.052075    1.213542    0.048513
C      -1.151741    2.277768    0.117800
C      -1.652931    2.758458   -1.297755
C      -0.776648    4.044135   -1.185420
C      -0.068281    3.409962    0.008053
C       0.702275    3.907154    1.220651
O       1.525603    2.710406    1.214673
C       1.036563    2.309860   -0.092736
H      -1.911738    2.218703    0.897838
H      -1.370334    2.089853   -2.113979
H      -2.729478    2.924261   -1.349989
H      -0.160421    4.320127   -2.045270
H      -1.375335    4.913656   -0.896929
H       1.314191    4.801482    1.038877
H       0.148837    4.029642    2.158295
H       1.831250    2.236069   -0.841630
