15

C      -0.000859    1.390322    0.207026
O      -0.036166   -0.030174    0.093692
C      -1.242887   -0.586460   -0.071356
N      -2.311371    0.141597   -0.122535
N      -3.473852   -0.536272   -0.292456
C      -3.611773   -1.904265   -0.412340
N      -4.770107   -2.434060   -0.570334
C      -2.304923   -2.570548   -0.332496
N      -1.182423   -1.964101   -0.172228
H       1.050749    1.648849    0.332195
H      -0.406258    1.864385   -0.692431
H      -0.582504    1.728104    1.070591
H      -4.304142    0.035750   -0.331670
H      -4.690093   -3.446583   -0.641094
H      -2.295702   -3.657599   -0.416094
