18

C       0.002258    1.462449   -0.031272
C       0.027577   -0.038951   -0.057839
C       0.564702   -0.967589   -1.169493
C       0.055634   -1.936371   -0.083111
C       0.066329   -3.373964   -0.080071
N       0.077721   -4.531113   -0.083464
C       0.537770   -0.998540    1.087044
C      -0.838325   -1.033707    1.778459
C      -1.169477   -1.012960    0.274186
H       1.015138    1.872559   -0.107285
H      -0.582100    1.859086   -0.868588
H      -0.442949    1.838430    0.896124
H       0.018055   -0.974223   -2.117463
H       1.645185   -0.960489   -1.342758
H       1.538957   -1.013153    1.520057
H      -1.091042   -1.946043    2.325419
H      -1.120090   -0.148070    2.354542
H      -2.136446   -1.044202   -0.229881
