19

C      -0.064257    1.537496    0.029432
C       0.009802    0.006923    0.020963
C       0.879642   -0.511815   -1.162751
C       2.231706   -0.733510   -0.541854
C       2.164404   -0.736333    0.796458
C       3.282204   -0.929859    1.711949
O       3.168344   -0.903973    2.924523
C       0.734007   -0.551965    1.280396
O       0.603962    0.308422    2.391183
H       0.935385    1.983239    0.056638
H      -0.572462    1.894361   -0.872368
H      -0.607764    1.897191    0.904397
H      -1.005432   -0.394950   -0.041037
H       0.496860   -1.459598   -1.568012
H       0.911107    0.188588   -2.005242
H       3.137520   -0.892733   -1.119866
H       4.273448   -1.099923    1.240158
H       0.322748   -1.547319    1.527155
H       1.260120    0.009842    3.036692
