20

O      -0.500140    0.478734    0.600857
C       0.093838    0.910829   -0.353193
C       1.350492    1.745450   -0.292112
C       1.171703    3.101480   -1.006869
C       2.452638    3.883717   -1.056571
C       3.103630    4.654540    0.109499
C       3.638867    5.703550   -0.922308
C       2.978655    4.890406   -2.043814
N       3.458597    3.509305   -2.047594
H      -0.272535    0.717502   -1.389892
H       1.635980    1.873004    0.756075
H       2.148111    1.192289   -0.807669
H       0.826686    2.929701   -2.032862
H       0.398891    3.688884   -0.496183
H       2.375449    5.089783    0.798756
H       3.844649    4.098000    0.693220
H       3.191288    6.689794   -0.779280
H       4.724922    5.821509   -1.000631
H       2.539442    5.276230   -2.957359
H       4.395596    3.420855   -1.656816
