21

C       0.162139    1.652224    0.029274
C       0.102869    0.125677   -0.024753
C       0.769102   -0.555938   -1.209126
C       2.278361   -0.573725   -1.230943
C       1.525666   -1.778569   -0.720592
C       1.357363   -1.901627    0.785308
C       2.594627   -2.278761    1.600001
C       0.759748   -0.543411    1.196714
O       0.810317   -0.069900    2.303433
H       1.191253    2.006990   -0.084243
H      -0.438961    2.098703   -0.768113
H      -0.211353    2.007852    0.993131
H      -0.953226   -0.186917    0.005727
H       0.241728   -0.578540   -2.156038
H       2.765667   -0.657680   -2.195718
H       2.820229    0.045506   -0.520384
H       1.545538   -2.685537   -1.314133
H       0.565011   -2.640440    0.986095
H       3.433849   -1.617124    1.363859
H       2.382886   -2.184520    2.668304
H       2.905775   -3.306517    1.391688
