20

C      -0.076284    1.561488    0.095274
C       0.099258    0.070239   -0.020080
N      -0.795722   -0.849630    0.748370
C       0.656638   -0.812085    1.042224
C       1.443796   -1.934392    0.377226
C       1.237517   -1.668572   -1.107236
C       1.760304   -2.606461   -2.153213
O       1.327357   -2.308338   -3.467534
C       0.525394   -0.556021   -1.312692
H       0.813998    2.091768   -0.259512
H      -0.927985    1.906449   -0.502711
H      -0.254534    1.859384    1.133932
H      -1.272164   -0.304413    1.466963
H       0.981113   -0.417308    1.999643
H       2.507491   -1.898430    0.649670
H       1.071165   -2.923363    0.671398
H       2.857757   -2.562458   -2.183377
H       1.508814   -3.643761   -1.869916
H       0.364289   -2.329718   -3.458917
H       0.261324   -0.154497   -2.283709
