17

O      -0.010628    0.026648   -0.018735
C      -0.024929    1.221645    0.004447
C      -1.172371    2.248772    0.052988
C      -0.791171    2.749710    1.480904
C       0.552878    3.379947    1.026856
C      -0.012028    4.443397    0.058583
C      -0.559491    3.367848   -0.892195
O       0.707851    2.790632   -1.304031
C       1.089215    2.282733   -0.005792
H      -2.181834    1.897767   -0.138940
H      -1.479231    3.487082    1.900398
H      -0.692435    1.921108    2.189533
H       1.252674    3.699031    1.796421
H      -0.760381    5.078617    0.537991
H       0.729232    5.060281   -0.450813
H      -1.139021    3.655031   -1.766358
H       2.131672    1.978462    0.013012
