20

C      -0.000553    1.492563    0.029278
C      -0.004599   -0.040715    0.009840
C      -1.440251   -0.562873   -0.108469
C       0.979833   -0.621154   -1.072954
C       1.994419   -1.274996   -0.112724
C       1.113902   -2.062038    0.880085
C       0.767230   -0.601036    1.241119
O       2.150864   -0.245901    0.918093
H       1.012672    1.870233    0.183772
H      -0.379485    1.895608   -0.916429
H      -0.639945    1.878144    0.832466
H      -1.915284   -0.179093   -1.017932
H      -1.488022   -1.654853   -0.149021
H      -2.048959   -0.232369    0.741483
H       0.505218   -1.344685   -1.742640
H       1.444611    0.160371   -1.678873
H       2.936166   -1.652409   -0.511726
H       0.340800   -2.734428    0.502267
H       1.708802   -2.537908    1.660090
H       0.446980   -0.284537    2.235156
