15

C      -0.122545    1.471453   -0.027331
C      -0.041852   -0.019970    0.033520
N      -0.086166   -0.747316   -1.078021
N       0.011356   -2.043348   -0.651490
C       0.113767   -2.128107    0.687311
O       0.220951   -3.301212    1.331895
C       0.084762   -0.842159    1.187384
N       0.174190   -0.583618    2.586110
H       0.769638    1.941697    0.402892
H      -0.214515    1.794734   -1.066217
H      -0.986510    1.851890    0.530387
H       0.000893   -2.794103   -1.319079
H       0.277896   -3.064919    2.270834
H      -0.643959   -0.095861    2.938240
H       0.980679   -0.012080    2.818885
