18

C      -0.136502    1.552432    0.021270
C       0.040239    0.022737    0.016679
C       0.743512   -0.506807   -1.188684
C       2.003332   -0.941337   -1.336166
O       2.235017   -1.318088   -2.642884
C       1.073755   -1.123205   -3.355708
O       0.936919   -1.368513   -4.526209
N       0.154414   -0.613449   -2.459706
C      -1.215265   -0.346553   -2.841470
H       0.834654    2.052222   -0.034956
H      -0.737032    1.894796   -0.826541
H      -0.638222    1.876214    0.937977
H       0.619069   -0.278019    0.896005
H      -0.939650   -0.461021    0.116844
H       2.823381   -1.042058   -0.647363
H      -1.316247   -0.648660   -3.885122
H      -1.917384   -0.923771   -2.231138
H      -1.459965    0.716810   -2.753620
