25

C       0.223924    1.493659   -0.200129
C       0.013145    0.005590    0.114540
C       0.539249   -0.326417    1.517725
C      -1.458801   -0.423153   -0.025360
C      -2.027611   -0.330837   -1.447873
C      -3.442823   -0.862742   -1.545980
C      -4.622271    0.010714   -1.153374
C      -4.390440   -0.362311   -2.597043
O      -3.900117    0.598963   -3.489034
H       1.277006    1.772627   -0.087129
H      -0.075721    1.745903   -1.221304
H      -0.359367    2.122454    0.484141
H       0.599567   -0.578228   -0.610538
H      -0.015431    0.228046    2.284592
H       0.436601   -1.393685    1.741391
H       1.597214   -0.062102    1.619647
H      -1.554929   -1.460093    0.325311
H      -2.076699    0.181555    0.653689
H      -2.013999    0.701853   -1.807429
H      -1.382940   -0.898520   -2.133240
H      -3.542917   -1.918385   -1.303238
H      -5.460291   -0.426555   -0.621145
H      -4.395823    1.036954   -0.880238
H      -5.068949   -1.088073   -3.046131
H      -4.603759    1.235039   -3.652850
