24

C       0.346605    1.759180   -0.026425
C       0.154510    0.232907   -0.028756
C       0.764695   -0.312623   -1.325833
N      -0.095675   -0.999412   -2.134915
O       1.926711   -0.126015   -1.642028
C       0.725582   -0.502755    1.234640
C      -0.116921   -0.114814    2.465503
C       0.605745   -2.026980    1.033715
C       2.200946   -0.144109    1.493906
H       1.401038    2.011373   -0.153881
H      -0.204249    2.212285   -0.856919
H      -0.018214    2.211767    0.898674
H      -0.923864    0.023676   -0.042023
H      -1.023750   -1.246929   -1.841895
H       0.277727   -1.423861   -2.968929
H      -1.173406   -0.371585    2.325797
H       0.240594   -0.650901    3.351202
H      -0.055917    0.954474    2.687092
H       1.235723   -2.378464    0.211341
H       0.919248   -2.556020    1.939709
H      -0.428375   -2.324072    0.821153
H       2.316144    0.911597    1.757691
H       2.586368   -0.735004    2.332126
H       2.815289   -0.340126    0.613081
