18

O      -0.274643    1.385477   -0.326118
C      -0.125164    0.005997   -0.177633
C      -0.216259   -0.622728    1.202542
C      -1.345335   -0.781704    0.218531
C      -2.711254   -0.118412    0.397822
C      -3.595021   -0.817052   -0.652613
C      -2.888217   -2.145881   -0.944620
O      -3.320536   -3.098252   -1.553944
N      -1.636534   -2.049294   -0.388576
H       0.496546    1.816388    0.057755
H       0.551881   -0.466704   -0.891152
H       0.416986   -1.476830    1.422867
H      -0.388493    0.044849    2.041606
H      -3.087484   -0.320222    1.405848
H      -2.642513    0.961783    0.268221
H      -4.621002   -0.996230   -0.327331
H      -3.643066   -0.253750   -1.591079
H      -0.953640   -2.776184   -0.531835
