19

C      -0.270994    1.493958    0.391552
O      -0.163201    0.179190   -0.137047
C      -1.330673   -0.571576   -0.023990
C      -1.276708   -1.939908   -0.747648
C       0.027348   -2.340966   -1.405282
O      -1.518547   -2.644286    0.501970
C      -1.531531   -1.431969    1.269094
C      -0.399902   -1.375280    2.277163
O      -0.237112   -0.464713    3.048398
H       0.683946    1.988597    0.203165
H      -1.071360    2.054390   -0.114099
H      -0.465033    1.478669    1.469929
H      -2.212676    0.033330   -0.271872
H      -2.118032   -2.096436   -1.434047
H       0.879715   -2.135152   -0.754445
H       0.005520   -3.410585   -1.634558
H       0.167748   -1.788518   -2.339391
H      -2.484568   -1.270685    1.789665
H       0.276642   -2.257669    2.239791
