15

O       0.041031   -0.030381    0.112235
C       0.027227    1.146205   -0.080780
O      -1.099737    1.809692   -0.467744
C      -0.885116    3.211355   -0.651993
C       0.639998    3.475486   -0.515776
N       1.024617    4.408555    0.541982
C       1.367243    3.641134    1.641663
N       1.523759    2.385687    1.462790
C       1.188241    2.138674    0.045922
H      -1.271691    3.481237   -1.638468
H      -1.452454    3.756782    0.110341
H       1.073547    3.770763   -1.472780
H       0.518456    5.272840    0.666357
H       1.539248    4.130922    2.595620
H       2.058029    1.734791   -0.478400
