18

C       0.021361    1.414394    0.035620
C      -0.007505   -0.099216    0.014534
N       1.075085   -0.644359   -0.771685
C       0.878664   -1.739881   -1.377251
O      -0.192809   -2.565422   -1.290145
C      -1.058159   -2.257491   -0.188200
C      -0.349585   -2.281336    1.204112
C      -0.521564   -0.765955    1.277960
C      -1.354517   -0.766432   -0.014036
H       0.972768    1.765081    0.446625
H      -0.072564    1.814947   -0.978424
H      -0.793514    1.819463    0.643155
H       1.614869   -2.138257   -2.072643
H      -1.915240   -2.920043   -0.292441
H      -0.947737   -2.812125    1.948734
H       0.670455   -2.675401    1.215407
H      -0.689489   -0.188172    2.178879
H      -2.275885   -0.259931   -0.270566
