14

C      -0.005575    1.507441   -0.060688
N       1.367009    2.032369    0.058553
C       2.359593    1.277690    0.288320
N       2.349430   -0.112610    0.501511
C       1.119965   -0.674607    0.226616
C      -0.013805    0.009585   -0.026652
N      -1.040374   -0.913107   -0.208912
C      -0.472606   -2.061846   -0.057005
O       0.875362   -2.003422    0.222603
H      -0.608283    1.942165    0.750075
H      -0.439866    1.899488   -0.989846
H       3.355892    1.712006    0.362956
H       3.192200   -0.633508    0.308657
H      -0.897967   -3.049392   -0.121695
