21

C      -0.084486    1.522559   -0.038688
C       0.061117    0.017454    0.022728
C       0.065758   -0.663494   -1.339168
C       0.061681   -2.199083   -1.256264
C       1.068192   -2.704884   -0.259073
C       1.381495   -2.003527    0.829718
C       0.753992   -0.682868    1.134694
C       1.335631    0.034585    2.331984
O      -0.698567   -0.650135    1.038569
H       0.732162    1.966401   -0.618482
H      -1.024902    1.784333   -0.536610
H      -0.094628    1.977128    0.952139
H      -0.797961   -0.319891   -1.920756
H       0.960391   -0.324118   -1.878135
H      -0.938395   -2.540783   -0.961830
H       0.253875   -2.623081   -2.247593
H       1.524966   -3.675114   -0.434102
H       2.104349   -2.381380    1.547724
H       2.391804    0.272379    2.163333
H       0.800819    0.956854    2.558534
H       1.278128   -0.611378    3.215240
