21

C       0.006346    1.495909    0.131526
C      -0.050871   -0.000597   -0.036175
C      -1.188009   -0.686391    0.114627
C      -1.335596   -2.179352   -0.011924
C      -0.107631   -2.959118    0.551828
C       0.512801   -2.900266   -0.868593
C      -0.923640   -2.708144   -1.426144
O       1.355183   -1.793394   -1.144636
C       1.300596   -0.638294   -0.326163
H       0.749425    1.784446    0.887138
H       0.306075    1.990103   -0.801778
H      -0.959896    1.902924    0.439916
H      -2.096511   -0.128422    0.331396
H      -2.315534   -2.493936    0.353609
H       0.442570   -2.523111    1.387834
H      -0.370024   -3.990360    0.803166
H       1.068239   -3.778415   -1.209462
H      -1.398289   -3.665938   -1.660625
H      -1.024848   -2.023345   -2.269831
H       1.924318    0.090714   -0.855504
H       1.808695   -0.824984    0.636214
