15

O      -0.078773    0.011423    0.022837
C       0.018149    1.217530   -0.018006
C       1.279931    1.945120    0.075080
C       1.374887    3.428942    0.376833
C       1.840836    2.962187   -0.951160
N       3.152206    2.229144   -1.063193
C       3.810187    2.140042    0.259058
C       2.653709    1.266046   -0.007747
H      -0.877086    1.868729   -0.147528
H       0.414465    3.935906    0.339836
H       2.027659    3.797208    1.159265
H       1.385372    3.281210   -1.879680
H       4.791014    1.681177    0.177165
H       3.770742    2.964056    0.961964
H       2.728798    0.196069   -0.159159
