11

O       0.122827    1.274594   -0.036746
C       0.081458   -0.055688   -0.030575
N      -0.038224   -0.646633   -1.217876
C      -0.073598   -1.975287   -1.141198
N      -0.003421   -2.720568   -0.040252
C       0.114053   -2.000737    1.073869
O       0.189356   -2.686167    2.212252
N       0.162731   -0.669088    1.152187
H       0.210119    1.558583    0.884083
H      -0.170596   -2.511407   -2.082502
H       0.270578   -2.038768    2.926725
