17

C      -0.276526    1.692014   -0.286650
C      -0.028312    0.208541   -0.076746
C       0.847151   -0.523191   -1.128325
C       1.783476   -0.822306    0.055868
O       0.964465   -0.044183    0.961980
C      -1.355178   -0.513710    0.202073
N      -1.390457   -1.160120    1.392728
O      -2.265857   -0.489360   -0.605568
H       0.650463    2.198959   -0.567951
H      -1.022531    1.826528   -1.073692
H      -0.655821    2.148995    0.633098
H       0.381216   -1.380442   -1.613909
H       1.264409    0.139820   -1.887846
H       1.834632   -1.874857    0.358890
H       2.799957   -0.420689   -0.010845
H      -0.597843   -1.091449    2.009655
H      -2.236567   -1.623490    1.677957
