16

N      -0.105373   -1.188178   -0.178371
C      -0.074012   -0.037219   -0.072456
C      -0.012244    1.411752    0.052529
C      -0.574545    1.988946    1.400245
C       0.642013    2.822603    1.852752
O       1.630991    1.951226    2.379192
C       2.241481    1.354046    1.219268
C       1.435577    2.003440    0.081136
O       1.185552    3.298283    0.631366
H      -0.543933    1.850751   -0.795553
H      -1.453721    2.611280    1.223749
H      -0.821436    1.214136    2.126184
H       0.457082    3.640889    2.547174
H       3.299677    1.631942    1.176555
H       2.148870    0.264692    1.254098
H       1.929201    2.075937   -0.885441
