16

O      -0.008835    0.153958   -0.606566
C      -0.005887    1.245615   -0.103804
C      -1.252102    2.078124    0.213212
C      -0.742546    3.346118    0.881002
O      -1.401328    4.191770    1.438194
C       0.760843    3.375963    0.779366
C       1.379313    4.692927    0.420875
N       1.493703    4.168402    1.774860
C       1.252348    2.016483    0.323839
H      -1.785623    2.319937   -0.714131
H      -1.960515    1.533424    0.844776
H       2.297452    4.684010   -0.160716
H       0.708689    5.527990    0.237323
H       0.801199    4.631735    2.365544
H       1.735861    1.470463    1.142541
H       1.967460    2.047014   -0.503046
