23

C      -1.672100   -0.594678   -0.582205
C      -0.218162   -0.187427   -0.315042
C       0.797898   -0.552661   -1.420058
O       0.454748    0.085300   -2.656284
C       2.208931   -0.035568   -1.069075
C       2.333146    1.482424   -0.904597
C       0.853837   -2.088070   -1.630415
C       1.825885   -2.517401   -2.708710
O       2.603569   -3.432023   -2.599323
H      -2.062195   -0.144258   -1.503057
H      -1.799007   -1.679017   -0.655697
H      -2.316512   -0.246741    0.230266
H      -0.181702    0.896911   -0.174719
H       0.118055   -0.638738    0.626385
H      -0.454442   -0.143871   -2.874330
H       2.544346   -0.546576   -0.158820
H       2.888205   -0.356242   -1.867746
H       1.924897    1.997862   -1.777319
H       1.810772    1.849022   -0.015952
H       3.385094    1.764893   -0.801431
H       1.104170   -2.612967   -0.703504
H      -0.138432   -2.438260   -1.949868
H       1.759020   -1.924674   -3.645906
