18

C       0.043769    1.509047   -0.058859
C       0.052248   -0.006461    0.053786
O       0.657760   -0.502521   -1.152116
C       1.080772   -1.788540   -1.243334
O       1.473169   -2.226461   -2.295761
N       1.024875   -2.537556   -0.095168
C       0.738476   -2.062782    1.243959
C       0.800850   -0.535521    1.277198
O       2.124795   -0.040788    1.209187
H       1.066514    1.889656   -0.065092
H      -0.453698    1.809565   -0.983871
H      -0.494374    1.948940    0.786423
H      -0.979286   -0.384117    0.105588
H       1.376935   -3.471958   -0.221943
H      -0.256973   -2.388735    1.580958
H       1.466866   -2.480982    1.951069
H       0.284798   -0.180728    2.182458
H       2.623479   -0.393123    1.952424
