15

N       0.082883   -1.073396   -0.002265
C       0.036756    0.081899   -0.002149
C      -0.064848    1.513466    0.005325
C      -1.118452    2.230226   -0.818096
C      -0.688763    3.648341   -0.515767
C      -0.113534    3.759140    0.891065
C       0.799841    3.684346   -0.306454
N       1.241437    2.274980    0.035451
C       0.324206    2.324175    1.205790
H      -1.043060    1.981802   -1.880825
H      -2.128478    1.996790   -0.468420
H      -1.185461    4.507278   -0.948185
H      -0.315687    4.557374    1.589600
H       1.504441    4.376304   -0.745523
H       0.593645    1.901388    2.165807
