19

C      -0.099366    1.536832    0.028335
C       0.059006    0.017894    0.041687
C       1.044222   -0.572506   -1.035167
N       2.019475   -1.360150   -0.220654
C       1.059944   -2.019399    0.760713
C       0.768573   -0.588032    1.271179
C       2.265774   -0.347512    0.892857
C       3.250008   -0.794660    1.869780
N       4.025531   -1.111876    2.665914
H       0.859197    2.054954    0.140838
H      -0.539739    1.871283   -0.916837
H      -0.756355    1.874063    0.836647
H      -0.932645   -0.437493   -0.056159
H       0.557411   -1.239374   -1.749801
H       1.573486    0.204543   -1.593985
H       0.247916   -2.584011    0.295264
H       1.611381   -2.649335    1.459844
H       0.370231   -0.365096    2.261707
H       2.554296    0.644364    0.535208
