20

C      -0.014582    1.436819   -0.031637
N      -0.010916   -0.013983   -0.130857
C      -1.083845   -0.650427    0.040775
O      -2.305310   -0.069230    0.293568
C      -3.286878   -1.058955    0.640564
C      -2.749806   -2.382915    0.108920
C      -2.829221   -2.622950   -1.429045
C      -1.277881   -2.714102   -1.483301
C      -1.218201   -2.156292   -0.032745
H       0.926083    1.764690    0.422083
H      -0.055569    1.877775   -1.036030
H      -0.852597    1.840832    0.548509
H      -3.404818   -1.073266    1.731912
H      -4.237456   -0.756663    0.190525
H      -3.060439   -3.237563    0.710740
H      -3.381818   -3.508159   -1.750177
H      -3.226660   -1.756150   -1.965045
H      -0.922925   -3.746294   -1.532045
H      -0.759336   -2.127342   -2.243586
H      -0.527669   -2.641706    0.657788
