14

C       0.129524    1.242959   -0.160138
O      -0.143851   -0.111010    0.166068
C       0.615194   -0.631245    1.235403
C       0.073194   -2.046354    1.486139
O       0.190775   -2.855150    0.344539
C       2.060646   -0.650644    0.916588
N       3.190076   -0.632987    0.674364
H       1.168070    1.376620   -0.487966
H      -0.544440    1.509546   -0.976028
H      -0.062584    1.903163    0.697500
H       0.483155   -0.021266    2.144254
H       0.642247   -2.523470    2.288865
H      -0.971169   -1.935771    1.815604
H      -0.217272   -2.369588   -0.382304
