20

C      -0.099304    1.689780   -0.766892
C       0.323574    0.504875    0.072034
C       0.691031   -0.812857   -0.649291
C       2.072722   -0.558944   -0.089080
O       1.710318    0.630439    0.540696
N       3.162407   -1.164971   -0.139905
C       4.371224   -0.737333    0.486461
C       4.800258    0.712350    0.604955
C       4.432026   -0.062830    1.843212
H       0.565381    1.813381   -1.627461
H      -1.121083    1.546455   -1.134203
H      -0.074856    2.610303   -0.176142
H      -0.334503    0.371820    0.936510
H       0.203382   -1.717867   -0.282730
H       0.625275   -0.781303   -1.739224
H       5.176419   -1.437171    0.288052
H       5.843831    0.940286    0.416734
H       4.100135    1.467733    0.271624
H       3.491524    0.186299    2.317831
H       5.217995   -0.377242    2.521263
