20

C      -0.030340    2.010842   -0.288578
C      -0.093041    0.524472    0.057349
N      -1.485506    0.119870    0.230898
C      -1.853514   -0.960994    0.966546
O      -1.081869   -1.713582    1.524825
C       0.629975   -0.400622   -0.975073
C       0.023530   -0.339615   -2.389924
C       2.061882   -0.113133   -0.996947
C       3.236816    0.143082   -1.016558
H       1.007080    2.316651   -0.439112
H      -0.584067    2.236088   -1.207143
H      -0.455586    2.611271    0.520683
H       0.403512    0.354044    1.017312
H      -2.208654    0.674614   -0.199045
H      -2.954686   -1.082428    1.006401
H       0.496517   -1.417453   -0.586853
H       0.492218   -1.086943   -3.034568
H      -1.049724   -0.547683   -2.350990
H       0.176524    0.639882   -2.851304
H       4.278319    0.349699   -1.030631
