16

O       0.025218   -0.035700    0.005504
C      -0.031606    1.165537    0.003111
C      -1.324948    1.956922   -0.041295
C      -1.222287    3.181041   -0.918226
C      -0.089330    3.600960   -1.477758
C       1.241095    2.922784   -1.283391
C       1.253334    2.029047   -0.012865
C       1.325340    2.839239    1.202740
N       1.371240    3.469911    2.170620
H      -2.121450    1.283695   -0.374163
H      -1.579719    2.251576    0.988120
H      -2.147335    3.723477   -1.091571
H      -0.097280    4.479861   -2.115804
H       1.481557    2.291901   -2.149349
H       2.045161    3.662220   -1.211504
H       2.103785    1.342350   -0.027395
