23

C      -0.210823    1.363974    0.030681
O       0.071722   -0.014202   -0.015592
C       0.717562   -0.536909    1.141063
C      -0.254753   -0.699255    2.312809
C       1.339923   -1.871773    0.731305
C       2.378223   -1.726083   -0.398334
C       2.975059   -2.997728   -0.791004
C       3.450575   -4.061046   -1.097113
C       4.032756   -5.340549   -1.477805
H       0.694387    1.958560    0.232417
H      -0.603114    1.644975   -0.950174
H      -0.964328    1.619388    0.789970
H       1.524748    0.156673    1.438794
H      -1.068044   -1.378529    2.038411
H       0.262314   -1.111436    3.185048
H      -0.693037    0.257537    2.610407
H       1.811241   -2.329827    1.607349
H       0.542478   -2.549115    0.405456
H       1.891403   -1.253340   -1.258153
H       3.167613   -1.032663   -0.075782
H       5.117276   -5.349729   -1.320368
H       3.608611   -6.163024   -0.890702
H       3.851662   -5.564126   -2.535260
