13

N      -0.016384    1.342382    0.166063
C       0.030839   -0.023627    0.054411
N      -1.155140   -0.688661    0.054822
H      -2.036820   -0.203212    0.154893
C      -1.219645   -2.082812   -0.004371
N      -2.367772   -2.644716   -0.006679
C       0.120263   -2.661203   -0.038678
N       1.220485   -1.982425   -0.024049
N       1.200769   -0.610646    0.001894
H       0.884865    1.770105    0.007258
H      -0.785488    1.819613   -0.280065
H      -2.264583   -3.657298   -0.045622
H       0.207120   -3.744246   -0.069963
