20

C      -0.055227    1.542511    0.056193
C       0.032834    0.011313    0.007731
C       0.688384   -0.489375   -1.291071
C       0.885873   -2.009146   -1.270418
C       1.852787   -2.450983   -0.157902
C       1.637636   -1.704812    1.147640
O       2.188293   -0.379564    1.219994
C       0.763645   -0.521618    1.225372
H       0.946696    1.983932    0.058728
H      -0.596397    1.931782   -0.812273
H      -0.575338    1.885123    0.957129
H      -0.988366   -0.397211    0.054203
H       0.063459   -0.198944   -2.142979
H       1.656290    0.009541   -1.419933
H      -0.089135   -2.490098   -1.114047
H       1.252494   -2.362582   -2.240068
H       1.750911   -3.526848    0.023049
H       2.891488   -2.284592   -0.468962
H       1.795772   -2.282198    2.059380
H       0.300541   -0.283766    2.185828
