15

N       0.013154    1.539717   -0.038148
C       0.004807    0.081723   -0.065404
C      -1.438181   -0.459377    0.123202
C      -2.000553   -0.112385    1.416265
C      -2.468534    0.155304    2.498825
C      -2.995307    0.457744    3.716301
C      -3.463237    0.724280    4.796937
C       0.583751   -0.489598   -1.302664
N       1.036465   -0.892553   -2.287400
H       0.966062    1.888409   -0.063570
H      -0.457773    1.909854   -0.859108
H       0.610368   -0.271982    0.775841
H      -2.067737   -0.064216   -0.684836
H      -1.425140   -1.548568   -0.002358
H      -3.874960    0.960116    5.746756
