23

C       0.082502    1.496953   -0.123180
C      -0.009516   -0.017646    0.077707
O       0.666192   -0.425895    1.269137
C      -1.432139   -0.550840    0.046840
C      -2.322033   -0.474715   -1.234912
C      -3.093658   -1.626683   -0.531144
C      -1.711332   -2.085693    0.009779
C      -3.689787   -0.909502    0.694972
C      -2.431406   -0.090549    1.138108
H       1.129500    1.811662   -0.115145
H      -0.364337    1.798689   -1.075934
H      -0.440294    2.035519    0.676045
H       0.551900   -0.509250   -0.727054
H       0.261192    0.042715    2.006817
H      -2.857514    0.457839   -1.441000
H      -1.789500   -0.808103   -2.129687
H      -3.749064   -2.299455   -1.085028
H      -1.106124   -2.595183   -0.744478
H      -1.679080   -2.638142    0.953244
H      -4.536282   -0.267575    0.433728
H      -4.026090   -1.610827    1.464126
H      -2.094971   -0.359630    2.144567
H      -2.609183    0.988655    1.118634
