16

N       0.046923    1.348780    0.126790
C      -0.040501   -0.016482    0.034820
C      -1.154699   -0.785398    0.024719
C      -0.795809   -2.187173   -0.006280
C       0.722973   -2.306773   -0.019901
C       1.225629   -0.842215    0.008803
N      -1.530142   -3.236482   -0.026848
O      -2.905721   -2.885221   -0.008246
H       0.891257    1.779073   -0.216596
H      -0.787604    1.879786   -0.069648
H      -2.175852   -0.433470    0.038783
H       1.076319   -2.875353    0.844320
H       1.063786   -2.839496   -0.911588
H       1.835852   -0.591949   -0.868913
H       1.845102   -0.626023    0.887447
H      -3.326699   -3.749969   -0.023642
