17

O      -0.181516    0.318684   -0.641997
C       0.220267    1.033914    0.247855
C       1.310154    2.031923    0.118668
C       1.675618    2.952670    1.306128
C       2.718794    3.831036    0.628394
C       2.643806    3.679719   -0.708606
C       3.572470    2.613041   -1.319750
C       2.305246    1.710846   -1.109202
C       1.393332    2.881305   -1.121803
H      -0.235583    0.982529    1.263315
H       0.773952    3.441775    1.702789
H       2.152528    2.437981    2.149223
H       3.659798    4.035376    1.131251
H       3.765063    2.683375   -2.396297
H       4.497533    2.394439   -0.780319
H       2.128382    0.758214   -1.598718
H       0.584693    3.144313   -1.790488
