20

C      -0.027696    1.476329    0.035359
C      -0.005622   -0.016280   -0.027970
C      -0.016542   -0.794208   -1.115038
C       0.013804   -2.231928   -0.725941
O       0.014327   -3.217016   -1.435485
N       0.043565   -2.214755    0.651555
C       0.034793   -0.881662    1.233259
C       1.315826   -0.628889    2.053225
C      -1.217694   -0.668915    2.106928
H       0.856228    1.868547    0.552365
H      -0.054629    1.910167   -0.966860
H      -0.902064    1.840976    0.587622
H      -0.043343   -0.479043   -2.149129
H       0.067961   -3.063303    1.191864
H       2.203946   -0.778582    1.433894
H       1.333336    0.389167    2.454122
H       1.365841   -1.319816    2.901262
H      -1.209874   -1.360430    2.955926
H      -1.250348    0.348386    2.508791
H      -2.126093   -0.847041    1.525701
