16

N      -0.029945    1.295457   -0.210755
C       0.048760   -0.007349    0.194174
O       1.083096   -0.497599    0.601639
C      -1.265488   -0.784248    0.108488
C      -1.038938   -2.285060   -0.075367
C      -2.327786   -3.087451    0.033750
O      -2.007843   -4.453647   -0.175048
H       0.781084    1.879999   -0.091270
H      -0.896194    1.721278   -0.488501
H      -1.806933   -0.598698    1.047374
H      -1.894438   -0.377196   -0.692897
H      -0.583258   -2.479986   -1.052432
H      -0.324039   -2.632496    0.675028
H      -2.780032   -2.929782    1.027677
H      -3.058682   -2.731755   -0.712544
H      -2.817083   -4.967554   -0.101629
