19

C       0.293516    1.531226   -0.531759
N       0.108418    0.142426   -0.127958
C       1.269900   -0.739205   -0.124124
C       0.624370   -0.327797    1.154760
C       1.316742    0.556065    2.169947
C       0.437625    1.355727    3.131820
C       1.182125    0.164810    3.641040
C       2.576712    1.150240    1.803096
N       3.593627    1.623620    1.516356
H       1.273484    1.958871   -0.278249
H       0.169171    1.591465   -1.617216
H      -0.484708    2.146903   -0.069794
H       1.117849   -1.738823   -0.523331
H       2.244030   -0.303492   -0.341872
H      -0.047262   -1.033308    1.642653
H       0.779817    2.341972    3.420940
H      -0.631394    1.270301    2.972934
H       0.633048   -0.748139    3.842467
H       2.043492    0.327564    4.277008
