12

N       0.022175    1.374899    0.147012
C      -0.040531    0.004025    0.046824
C      -1.170821   -0.748530    0.021298
O      -1.191906   -2.098262   -0.024694
N      -0.035103   -2.823279   -0.042250
C       1.064281   -2.150781   -0.024228
F       2.164557   -2.873063   -0.051350
C       1.237020   -0.694626    0.008871
O       2.320793   -0.128352   -0.005020
H       0.943345    1.729109   -0.077230
H      -0.740727    1.912704   -0.232156
H      -2.181237   -0.358563    0.036487
