21

C      -0.015296    1.621876    0.016153
C       0.097193    0.102190   -0.006904
C       0.830968   -0.624549   -1.132305
C       2.316711   -0.763745   -0.720148
O       3.294383   -1.071084   -1.646685
C       2.495190   -0.097247    0.639018
C       1.074683   -0.653659    0.950216
C       1.293958   -1.731859   -0.197620
C       1.184363   -3.218767   -0.253919
H       0.951114    2.110825   -0.135749
H      -0.686468    1.970101   -0.777185
H      -0.424134    1.972609    0.970834
H      -0.900748   -0.339200    0.106867
H       0.552588   -0.729990   -2.175131
H       3.408851   -0.314586   -2.232352
H       3.257652   -0.619512    1.224468
H       2.660437    0.984044    0.705674
H       0.788130   -0.871690    1.977608
H       0.158243   -3.560581   -0.075714
H       1.492913   -3.582801   -1.239512
H       1.829098   -3.698757    0.491691
