17

C      -1.075861    0.990518    0.178474
C      -0.020549   -0.086619   -0.034894
C       0.937600   -0.014403   -1.267287
C       2.172764   -0.320360   -0.368437
O       2.435842   -1.719566   -0.437918
C       3.363880    0.494799   -0.504093
C       4.351078    1.178513   -0.571166
C       1.227482   -0.040178    0.859628
O       1.426763    0.180132    2.015784
H      -0.639647    1.991576    0.098744
H      -1.875209    0.908686   -0.564443
H      -1.523012    0.898303    1.172528
H      -0.469326   -1.084161    0.040564
H       0.785021   -0.751692   -2.055288
H       0.990955    0.987698   -1.696904
H       3.085515   -1.924585    0.245339
H       5.223102    1.781414   -0.638366
