25

C      -0.143114    1.152614    1.106847
C       0.075072   -0.323290    0.762625
C       0.698082   -0.524799   -0.623020
C       0.922093   -1.990309   -0.999512
O      -0.342760   -2.669930   -1.036134
C      -0.472827   -3.732678   -0.111111
C       1.574790   -2.170441   -2.387476
C       3.050980   -1.796114   -2.415599
O       1.479274   -3.527887   -2.789444
H       0.802630    1.706155    1.102734
H      -0.809170    1.633164    0.381615
H      -0.592015    1.268922    2.098238
H       0.719754   -0.784512    1.522961
H      -0.881796   -0.855473    0.800429
H       0.050324   -0.069339   -1.383732
H       1.657881    0.004421   -0.671555
H       1.567106   -2.475604   -0.252126
H       0.288315   -4.508427   -0.274387
H      -0.399259   -3.383138    0.928193
H      -1.463849   -4.169758   -0.262757
H       1.024890   -1.530211   -3.099409
H       3.610149   -2.388533   -1.684013
H       3.462698   -2.006938   -3.406052
H       3.202758   -0.735367   -2.200150
H       0.549900   -3.758494   -2.668652
