17

O       0.048217    1.337134    0.004389
C       0.030088   -0.046514   -0.044523
C      -1.300165   -0.802106   -0.219957
C      -0.390492   -1.940775   -0.732571
C       0.670891   -2.222144    0.376890
C       1.831404   -1.585509   -0.438037
O       2.205243   -0.693893    0.639324
C       0.813185   -0.813374    1.042514
C       0.671405   -0.902672   -1.226043
H       0.961234    1.598844    0.179622
H      -1.917814   -0.968419    0.669160
H      -1.909141   -0.372324   -1.019812
H      -0.758190   -2.769958   -1.332071
H       0.740425   -3.129015    0.973807
H       2.667170   -2.082960   -0.927688
H       0.632593   -0.579015    2.091343
H       0.727048   -0.479137   -2.225580
