19

C      -0.062753    1.565485   -0.039552
C       1.481348    1.430059    0.014320
C       1.290153    0.115835    0.853714
C       2.277132   -0.934110    0.340635
C       2.851933   -0.433288   -0.972371
C       1.748310   -1.467780   -0.978403
C       0.686778   -0.390817   -1.296962
C      -0.028292    0.015501    0.005578
C       1.847920    0.697696   -1.290384
H      -0.477610    2.002245    0.872971
H      -0.510615    2.049068   -0.913785
H       2.128720    2.243562    0.345754
H       1.174814    0.232005    1.930149
H       2.866548   -1.566865    0.991339
H       3.891475   -0.517337   -1.264162
H       1.766703   -2.508993   -1.275665
H       0.087437   -0.496426   -2.199819
H      -0.884167   -0.579537    0.328312
H       1.997189    1.294080   -2.189034
