17

O      -0.042973    1.268740   -0.539644
C       0.053427   -0.095388   -0.175507
C      -1.316873   -0.638349    0.181232
O      -2.225302   -0.546793   -0.959898
C      -2.669344   -1.910345   -0.770730
C      -1.599513   -2.145566    0.344764
C      -0.817366   -3.116148   -0.585476
C      -1.863307   -2.858800   -1.694955
O      -1.998540   -3.239720   -2.817893
H      -0.673840    1.313906   -1.268080
H       0.504034   -0.690411   -0.983026
H       0.715896   -0.148905    0.695803
H      -1.727082   -0.048070    1.011209
H      -3.754484   -2.005696   -0.683251
H      -1.838114   -2.504943    1.342747
H       0.226379   -2.903775   -0.825367
H      -0.880220   -4.154812   -0.242487
