17

O      -0.565275   -0.053467   -0.156288
C      -0.274272    1.116087   -0.064065
N      -1.151392    2.197856   -0.097618
C      -0.479226    3.427855    0.289916
C       0.993774    3.100686   -0.064567
N       0.999147    1.652781    0.095532
C       1.364174    3.526536   -1.470746
C       2.179055    4.719747   -1.726871
O       2.752240    3.412449   -1.794129
H      -2.101397    2.016332    0.184847
H      -0.849795    4.292148   -0.269970
H      -0.575141    3.642754    1.363032
H       1.689032    3.573355    0.636465
H       1.779162    1.110420   -0.242923
H       0.689678    3.174935   -2.253119
H       2.088329    5.241203   -2.678127
H       2.514671    5.333417   -0.891474
