17

C      -0.085051    1.463141    0.011767
C      -0.009642    0.011120    0.009704
C       0.065187   -1.194187    0.015985
C       0.095836   -2.606869    0.000837
C       1.155074   -3.417143    0.189390
C       0.798723   -4.880945    0.064031
C      -0.708155   -4.853396   -0.161561
O      -1.450067   -4.282218    0.918592
C      -1.136619   -3.446621   -0.213363
H       0.482497    1.893404   -0.821392
H      -1.120997    1.807731   -0.078489
H       0.323801    1.879772    0.939332
H       2.153440   -3.074854    0.433666
H       1.317708   -5.355059   -0.779769
H       1.064181   -5.453539    0.961435
H      -1.207859   -5.651675   -0.703282
H      -1.988304   -3.073625   -0.773111
