16

N      -0.027429   -1.169106   -0.170335
C      -0.015088   -0.017920   -0.070248
C      -0.008326    1.437350    0.040602
C      -0.633544    1.979848    1.369559
C       0.247877    3.178192    1.717179
C       1.728591    2.901167    1.874515
O       2.056654    1.632899    1.299066
C       1.405125    2.050528    0.062695
C       1.223259    3.485996    0.592824
H      -0.548141    1.846665   -0.822276
H      -1.675549    2.271344    1.221251
H      -0.605710    1.214322    2.148098
H      -0.159509    4.003429    2.289939
H       2.366159    3.284299    2.661659
H       2.025288    1.857786   -0.812913
H       1.386096    4.426942    0.087804
