19

C       0.020304    1.443413   -0.018504
C       1.359100    0.717996   -0.014863
C       1.999443    0.471093    1.339881
C       0.835323   -0.136605    2.174673
O      -0.094284   -0.721269    1.254069
C       0.075269   -0.068738    0.027002
C      -0.014577   -0.811242   -1.256881
C       1.033170   -0.516782   -2.034830
C       2.020510    0.428395   -1.361722
H      -0.268556    1.976971    0.881450
H      -0.305488    1.909074   -0.942652
H       2.813308   -0.253237    1.226057
H       2.411223    1.360423    1.827591
H       1.160719   -0.917929    2.867340
H       0.334775    0.645145    2.762633
H      -0.840767   -1.461328   -1.518462
H       1.171076   -0.869214   -3.052018
H       2.184788    1.335166   -1.957666
H       3.006344   -0.041323   -1.242392
