21

C       0.121623    1.444935    0.105213
C      -0.167526   -0.033454   -0.137361
N       0.631845   -0.534756   -1.249236
C       0.830070   -1.863410   -1.480880
N       1.145883   -2.391699   -2.600479
C       1.376591   -3.817164   -2.339754
C       2.819733   -4.221017   -2.650121
C       0.992795   -3.995572   -0.840583
O       0.713734   -2.658434   -0.378891
H       1.179322    1.602009    0.334740
H      -0.127600    2.047995   -0.775505
H      -0.477415    1.818049    0.940786
H       0.089739   -0.621677    0.745578
H      -1.244832   -0.178400   -0.315681
H       0.592887   -0.001943   -2.105676
H       0.707423   -4.412374   -2.974451
H       3.519561   -3.663726   -2.018052
H       2.975362   -5.292383   -2.478903
H       3.057183   -3.999503   -3.694018
H       0.096343   -4.604791   -0.689843
H       1.805751   -4.403881   -0.231985
