20

C      -0.811897    0.865284   -0.086771
O      -0.306743   -0.455631   -0.097441
C       0.628690   -0.690703   -1.137759
C       1.004576   -2.172777   -1.184678
C       1.577120   -2.713905    0.135961
O       0.739662   -2.596354    1.269683
O      -0.037200   -2.953973   -1.773585
C      -1.149548   -3.268099   -1.061066
N      -2.136201   -3.758948   -1.679194
H      -0.010330    1.601790    0.071120
H      -1.322902    1.099338   -1.030985
H      -1.527831    0.933144    0.734650
H       0.196654   -0.402792   -2.106998
H       1.538083   -0.088247   -0.976573
H       1.817211   -2.251726   -1.917247
H       1.794284   -3.779541    0.009469
H       2.540598   -2.200439    0.297445
H       0.370592   -1.702392    1.250773
H      -1.059177   -3.091597    0.011147
H      -2.874097   -3.978594   -1.012316
