23

C      -0.345191    1.504893    0.156259
C       0.056836    0.047591   -0.015241
C      -1.100162   -0.983104    0.189265
C      -0.318875   -1.652898    1.352084
C       0.846456   -0.640355    1.161215
C       2.137306   -1.205966    0.538027
O       2.702312   -2.320638    1.201242
C       1.777152   -1.430267   -0.944224
C       0.903643   -0.211935   -1.282737
H       0.533835    2.158519    0.199704
H      -0.968502    1.842481   -0.680968
H      -0.919550    1.656419    1.076920
H      -2.047693   -0.527127    0.488402
H      -1.294359   -1.628811   -0.672580
H      -0.808541   -1.590521    2.326099
H      -0.063479   -2.705339    1.185192
H       1.052910   -0.024389    2.039149
H       2.913007   -0.432282    0.595098
H       2.045879   -3.025405    1.203515
H       2.660909   -1.530232   -1.579440
H       1.201673   -2.361112   -1.043180
H       0.282093   -0.356997   -2.172839
H       1.545208    0.656616   -1.478820
