17

C      -0.000976    1.447668   -0.045620
N      -0.088482   -0.006911   -0.094263
C       0.606387   -0.658455   -1.085132
N       1.220064   -0.079686   -2.110917
C       1.685862   -1.156806   -2.803071
O       2.382054   -1.015352   -3.941497
N       1.426910   -2.343065   -2.301814
N       0.699208   -2.002086   -1.172780
C       0.176578   -3.021454   -0.298626
H       1.012889    1.812328    0.166323
H      -0.308477    1.855385   -1.009943
H      -0.683226    1.811667    0.725882
H      -0.046473   -0.456280    0.808213
H       2.445771   -0.066685   -4.102197
H       0.886628   -3.294225    0.491960
H      -0.753926   -2.669893    0.156419
H      -0.035940   -3.908185   -0.897278
