16

C       0.020046    1.550771    0.071962
C       0.098985    0.033875    0.008432
C       0.780579   -0.546331   -1.236373
C       1.263856   -1.909162   -0.722816
C       1.629061   -1.591871    0.738254
O       0.879080   -0.436442    1.112303
H       1.019001    1.989419   -0.016325
H      -0.606492    1.937691   -0.738368
H      -0.412542    1.873089    1.023229
H      -0.920477   -0.383095    0.087037
H       0.107053   -0.617159   -2.094278
H       1.630603    0.085102   -1.521604
H       0.449562   -2.640229   -0.764857
H       2.105934   -2.316956   -1.287169
H       1.392577   -2.420474    1.417469
H       2.699542   -1.367643    0.846167
