20

O      -0.147761    1.629436    0.291038
C      -0.073771    0.225998    0.495159
C      -1.364946   -0.455179    0.085008
C      -2.604829    0.319995   -0.194465
N      -1.927247   -0.412621   -1.264926
C      -1.253948    0.357783   -2.307511
C      -2.242458    0.656222   -3.444466
C      -1.547910    1.215665   -4.662221
O      -1.821728    2.255394   -5.204328
H       0.722897    2.003977    0.454881
H       0.765619   -0.211038   -0.069970
H       0.098845   -0.006198    1.558095
H      -1.462155   -1.437148    0.547213
H      -3.577029   -0.063835    0.103282
H      -2.506952    1.402512   -0.178628
H      -0.814577    1.292499   -1.934919
H      -0.432843   -0.260248   -2.695104
H      -2.722436   -0.289775   -3.731644
H      -3.020728    1.354984   -3.125882
H      -0.721961    0.571986   -5.050721
