18

C       0.002858    1.543624   -0.095498
C      -0.089910    0.020021    0.014317
O       0.331359   -0.618350   -1.187220
C       0.662130   -0.508524    1.213291
C       2.109365   -0.969989    1.193222
C       1.027393   -1.909576    1.634525
O       0.684152   -1.681272    3.005072
C       0.235395   -0.340472    2.672606
H       1.048636    1.859714   -0.193690
H      -0.553114    1.895680   -0.968839
H      -0.407309    2.030200    0.795591
H      -1.145792   -0.262068    0.120010
H       1.164460   -0.214989   -1.454116
H       2.503567   -1.172104    0.202425
H       2.829596   -0.600471    1.918545
H       0.822373   -2.883952    1.207185
H       0.736333    0.430492    3.270447
H      -0.851325   -0.257380    2.799555
