19

C       0.433626    1.585671   -0.127017
C      -0.013414    0.128411    0.048609
C       0.375815   -0.782026   -1.145648
C       1.663023   -1.486493   -0.691981
C       1.602834   -1.440691    0.834592
O       2.287138   -2.072161    1.614252
N       0.635615   -0.530472    1.176958
C       0.344315   -0.203516    2.552998
H       1.507830    1.644377   -0.331973
H      -0.102020    2.046983   -0.962861
H       0.226904    2.179154    0.768689
H      -1.100447    0.115603    0.204663
H      -0.413983   -1.518985   -1.316876
H       0.495263   -0.207154   -2.066705
H       1.754510   -2.518287   -1.035560
H       2.567839   -0.958502   -1.013235
H       0.932798   -0.876719    3.178993
H       0.614173    0.831640    2.796035
H      -0.722101   -0.340815    2.770532
