17

O      -0.186245    0.152372   -0.682663
C      -0.043149    1.215934   -0.132972
C       1.238026    1.948870   -0.028150
C       1.185448    3.477112    0.002456
C       1.542102    2.733822    1.235281
C       0.760638    2.716229    2.567477
C       2.121783    2.847227    3.281893
O       2.445388    2.985567    4.422783
C       2.903919    2.758876    1.954775
H      -0.905558    1.737269    0.347750
H       2.072514    1.476491   -0.536206
H       1.962815    4.002856   -0.541308
H       0.202627    3.936542   -0.055375
H       0.070592    3.546660    2.744702
H       0.247955    1.779139    2.807742
H       3.495087    1.840807    1.870488
H       3.554099    3.614429    1.747632
