15

C      -0.034800    1.558503    0.037614
C      -0.023933    0.028388    0.001050
O      -1.381791   -0.473144    0.038697
C      -1.882262   -0.704464    1.281090
N      -3.176102   -1.125520    1.181193
O      -1.280386   -0.533335    2.316347
C       0.603213   -0.501049   -1.205226
C       1.149923   -0.905927   -2.194923
H       0.987981    1.940086   -0.021299
H      -0.606201    1.955186   -0.805080
H      -0.483141    1.895015    0.975192
H       0.489720   -0.350445    0.889918
H      -3.516562   -1.442052    0.289300
H      -3.583867   -1.514811    2.013467
H       1.632790   -1.274502   -3.066099
