20

C       0.049510    1.514563    0.051469
C       0.100306   -0.025993    0.056805
C       0.733325   -0.494756    1.356189
O       1.830946   -0.976897    1.453005
C      -1.306272   -0.609099   -0.071842
C      -2.089918   -0.507003   -1.412069
C      -2.191128   -2.030538   -1.350052
C      -0.853247   -2.641751   -1.285802
N      -1.432708   -2.114896   -0.033711
H       1.056114    1.939650    0.088161
H      -0.442177    1.879137   -0.855576
H      -0.512099    1.895160    0.912109
H       0.747787   -0.368077   -0.756200
H       0.095132   -0.328035    2.256822
H      -1.915352   -0.228555    0.755297
H      -3.043676    0.012900   -1.311082
H      -1.559732   -0.103051   -2.280742
H      -3.094243   -2.607237   -1.519638
H      -0.789213   -3.725151   -1.278726
H      -0.004521   -2.146543   -1.750438
