21

C       0.098892    1.545543   -0.101371
C       0.074338    0.032470    0.041362
O       0.742321   -0.542501   -1.091813
C       1.194093   -1.828560   -0.727764
C       0.550041   -3.031619   -1.367242
C       1.949638   -2.585099   -1.768015
C       1.515858   -1.779316    0.738420
C       2.302908   -0.573328    1.190920
C       0.795838   -0.554413    1.249181
H       1.125774    1.921128   -0.085792
H      -0.365829    1.847022   -1.044437
H      -0.455230    2.012236    0.719055
H      -0.972551   -0.315257    0.064176
H       0.441578   -3.942222   -0.786542
H      -0.249879   -2.840898   -2.073912
H       2.061928   -2.110850   -2.736582
H       2.796795   -3.185306   -1.454129
H       1.558306   -2.705025    1.299435
H       2.832284   -0.650916    2.133956
H       2.804308    0.021861    0.434817
H       0.292078   -0.542619    2.208598
