14

O       0.239039    0.215182   -0.606384
C       0.246143    1.369350   -0.270322
N       1.283321    1.981410    0.428701
C       2.694312    1.928557    0.100456
C       3.160330    1.344851   -1.123505
C       3.593622    0.854162   -2.130429
C       1.909855    3.248939    0.093105
C       1.608991    3.918587   -1.139937
C       1.342889    4.507723   -2.153009
H      -0.607462    2.059338   -0.405096
H       3.339322    1.768256    0.962270
H       3.958807    0.411464   -3.024286
H       2.070091    3.904436    0.947107
H       1.114028    5.018034   -3.056252
