21

C       0.671314    1.454714    0.238086
C       0.062498    0.082733    0.029496
C       0.402225   -0.687387   -1.265373
C       0.954672   -1.781303   -0.317968
C       0.128884   -3.061413   -0.256558
C       2.459111   -2.067890   -0.439638
C       3.010939   -2.790186    0.772070
O       3.666459   -3.800653    0.726152
O       0.694837   -0.938573    0.842555
H       1.741469    1.449014    0.008670
H       0.180785    2.191564   -0.407586
H       0.545391    1.774163    1.277380
H      -1.015044    0.117880    0.241092
H      -0.443262   -0.984966   -1.887787
H       1.157509   -0.204882   -1.890229
H       0.269239   -3.656899   -1.165084
H       0.424154   -3.675183    0.600327
H      -0.934379   -2.826597   -0.156230
H       2.679288   -2.655599   -1.336254
H       2.985869   -1.107333   -0.513336
H       2.767243   -2.302719    1.740394
