22

C      -0.271710    1.413280    0.267754
C       0.009983   -0.068783    0.056253
C       1.065326   -0.373540   -1.058117
C       2.001003   -0.973980   -0.002120
C       0.961765   -0.682772    1.098525
C       1.328366   -2.091525    0.739729
N       0.391424   -2.968360    0.090529
C       0.840825   -4.335032   -0.151925
C      -0.165409   -4.042311    0.906357
H       0.658541    1.978255    0.399599
H      -0.803880    1.838021   -0.590586
H      -0.888810    1.577143    1.158709
H      -0.928651   -0.618980   -0.058973
H       0.752826   -1.048838   -1.858461
H       1.464676    0.544663   -1.497148
H       3.078806   -0.857890    0.020330
H       1.108148   -0.297338    2.102398
H       1.980576   -2.567691    1.480321
H       0.537583   -4.773895   -1.098347
H       1.843689   -4.605758    0.175054
H       0.164023   -4.117089    1.941574
H      -1.217112   -4.263165    0.747030
