18

C      -0.011543    1.488127   -0.172548
C       1.511468    1.559347   -0.040671
C       1.959352    1.023914    1.302540
C       1.136738    1.159331    2.565547
O       0.576964   -0.071742    3.059033
C      -0.421583   -0.670597    2.357771
N      -0.722382   -0.676976    1.131354
C       0.068090   -0.065972    0.087405
C       1.596038    0.055403    0.215659
H      -0.604740    2.068484    0.540026
H      -0.366645    1.712991   -1.179955
H       2.164457    2.179421   -0.642728
H       3.032785    1.098262    1.452955
H       1.759513    1.516301    3.388820
H       0.318066    1.876735    2.438780
H      -1.027731   -1.254363    3.052470
H      -0.185793   -0.583982   -0.840966
H       2.307724   -0.669720   -0.160272
