17

C      -0.061678    1.496499    0.010503
C      -0.022908   -0.021374    0.002347
O      -1.355113   -0.504626    0.011891
C      -1.436659   -1.908737    0.005466
C      -2.881424   -2.280159    0.016062
C      -3.993955   -1.503313    0.028310
O      -5.068079   -2.292095    0.034542
N      -4.581217   -3.631279    0.025143
N      -3.323273   -3.584023    0.014483
H       0.954298    1.901617    0.003421
H      -0.591144    1.871775   -0.869680
H      -0.575144    1.862646    0.903910
H       0.505106   -0.393322   -0.891117
H       0.521112   -0.402433    0.882266
H      -0.943583   -2.334203   -0.885181
H      -0.928308   -2.343276    0.883041
H      -4.148408   -0.438492    0.033817
