18

C      -0.267049    1.519523    0.133130
C       0.073414    0.025625   -0.002392
C       0.783953   -0.527062    1.194271
C       2.057799   -0.966492    1.342455
O       2.299836   -1.378152    2.598837
N       1.135798   -1.214322    3.355883
C       0.260585   -0.715112    2.515167
O      -0.997587   -0.414654    2.854505
C      -1.354053   -0.676723    4.214735
H       0.641265    2.119375    0.245904
H      -0.805102    1.876021   -0.750511
H      -0.897277    1.692974    1.009770
H      -0.853468   -0.538491   -0.162485
H       0.691525   -0.136339   -0.892129
H       2.887364   -1.048304    0.656009
H      -0.728205   -0.093698    4.897226
H      -2.399355   -0.382334    4.311143
H      -1.232851   -1.738996    4.447397
