16

O      -0.070354   -0.027612   -0.013735
C       0.009584    1.179237    0.054711
C       1.268437    1.927973    0.039978
C       1.352087    3.269836    0.079015
C       2.777669    3.754038   -0.027439
C       3.598808    2.462352   -0.029045
C       3.502329    1.566434    1.176350
C       2.618399    1.295533   -0.023651
H      -0.902528    1.814108    0.121994
H       0.504002    3.939046    0.182308
H       2.919414    4.329884   -0.952495
H       3.045857    4.430501    0.794741
H       4.504752    2.424719   -0.621597
H       4.327560    0.883721    1.347733
H       3.032655    1.943038    2.080012
H       2.757794    0.388005   -0.597073
