18

C      -0.117509    1.563216   -0.235755
C       0.049729    0.047447   -0.131170
C       1.369078   -0.458277   -0.821266
C       2.013702   -0.497268    0.568361
O       3.142992   -0.501967    0.961081
C       0.647448   -0.394215    1.254722
C      -1.163456   -0.797701   -0.526535
N      -2.281278   -0.134780   -0.931043
O      -1.119877   -2.014979   -0.475575
H       0.803844    2.070362    0.068206
H      -0.331997    1.877690   -1.263419
H      -0.915980    1.929248    0.419398
H       1.237743   -1.472796   -1.209773
H       1.831237    0.177787   -1.579985
H       0.552234    0.291548    2.100007
H       0.284186   -1.388052    1.533515
H      -2.339323    0.865004   -0.986371
H      -3.081930   -0.685073   -1.195446
