20

O       0.317133    0.041901   -0.616253
C      -0.382358   -1.016616    0.006503
C      -1.845542   -0.703324    0.392909
C      -1.969995    0.448346    1.381730
C      -1.052975    0.685400    2.502155
O      -0.994130    1.512595    1.331477
N      -2.826718   -0.449682   -0.668986
C      -2.466026    0.267282   -1.892932
C      -2.788489   -1.188682   -1.921149
H       0.192478    0.815209   -0.046070
H      -0.363577   -1.860545   -0.690402
H       0.138601   -1.365856    0.914428
H      -2.213995   -1.599071    0.916998
H      -2.991891    0.811765    1.477938
H      -1.419997    1.185423    3.396470
H      -0.193606    0.036987    2.657574
H      -3.201580    0.993195   -2.230180
H      -1.427448    0.541275   -2.040327
H      -1.964406   -1.871907   -2.113388
H      -3.752763   -1.537928   -2.281609
