17

O       0.015475   -0.111075   -0.297927
C       0.075024    0.965339    0.239633
C       1.236173    1.935747    0.103623
C       2.522265    1.252686   -0.500758
C       2.074944    1.764512   -1.923098
C       1.237454    2.761644   -1.157920
C       1.131282    4.048098   -0.852584
C       0.939859    4.163030    0.651031
O       1.232273    2.848331    1.179624
H      -0.741648    1.351231    0.888151
H       3.425158    1.751200   -0.147313
H       2.581092    0.170985   -0.373571
H       2.834235    2.166522   -2.595058
H       1.490180    0.999343   -2.438949
H       1.316911    4.905546   -1.486901
H       1.644833    4.881775    1.088520
H      -0.072545    4.466643    0.956826
