21

C      -0.574365    0.264820    1.507422
O      -0.575688   -0.416306    0.251036
C      -1.703201   -0.359187   -0.540278
C      -2.060940   -1.741213   -1.035077
C      -2.571472   -2.640711    0.075912
C      -2.232115   -4.084671    0.093379
N      -1.645910   -3.170467    1.089633
N      -2.374638    0.653529   -0.883174
C      -1.971505    2.005661   -0.538600
H       0.086380   -0.304024    2.165236
H      -0.198823    1.288287    1.420228
H      -1.577539    0.282925    1.943540
H      -2.813450   -1.638096   -1.820088
H      -1.161041   -2.189407   -1.476077
H      -3.530994   -2.335308    0.489713
H      -2.936430   -4.808811    0.492892
H      -1.599194   -4.464155   -0.705394
H      -0.694772   -2.928305    0.822191
H      -2.390269    2.317545    0.426094
H      -0.883142    2.140266   -0.500266
H      -2.372589    2.686651   -1.295000
