21

C      -0.066372    1.528694    0.084244
C      -0.046719    0.020867    0.097317
C      -1.316606   -0.741599   -0.301739
C      -1.280837   -2.026999    0.518463
N      -1.375683   -1.905239    1.984326
C      -0.047695   -2.074442    1.362230
C       0.709830   -3.328328    1.720160
C       0.708245   -0.799261    1.090667
N       1.232586   -0.610744   -0.276500
H       0.900757    1.929160    0.397210
H      -0.274509    1.906324   -0.923637
H      -0.841630    1.919366    0.753136
H      -2.217366   -0.153731   -0.082647
H      -1.334935   -0.949299   -1.379491
H      -1.731845   -2.927994    0.112711
H      -1.526235   -0.931982    2.245396
H       0.023634   -4.171301    1.831498
H       1.451133   -3.576386    0.952568
H       1.242480   -3.201966    2.669545
H       1.313291   -0.359323    1.880806
H       1.070522   -1.451809   -0.828680
