20

C      -0.277256    1.713336    0.067634
C       0.108853    0.233295    0.008692
C      -1.165307   -0.652666   -0.104896
C      -1.957776   -0.394904   -1.305478
N      -2.573251   -0.179493   -2.260155
C       1.076201   -0.102996   -1.168380
C       1.989404   -1.158138   -0.594104
C       1.886304   -1.236120    0.731590
C       0.886691   -0.244587    1.274837
H       0.615146    2.339668    0.162281
H      -0.812531    2.022257   -0.835756
H      -0.924373    1.921488    0.927391
H      -0.873681   -1.709144   -0.103027
H      -1.806682   -0.493843    0.769684
H       0.538976   -0.429519   -2.066113
H       1.650044    0.785051   -1.467639
H       2.663747   -1.744730   -1.207920
H       2.463801   -1.894278    1.371022
H       1.397590    0.598660    1.760004
H       0.219878   -0.671468    2.034523
