18

O      -0.014476    1.404183    0.031150
C       0.017463   -0.012403    0.043163
C      -1.376455   -0.566973    0.016156
N      -2.385350   -0.128206    1.047650
C      -3.144505   -1.048002    0.136790
C      -2.438770   -0.497198   -1.131766
C      -2.077012   -1.900572   -1.668300
C      -1.927500   -2.020974   -0.136357
O      -1.482768   -3.071787    0.638251
H      -0.760614    1.659681    0.588877
H       0.579778   -0.338943   -0.839173
H       0.548336   -0.396186    0.930647
H      -2.194032   -0.603683    1.934601
H      -4.201593   -1.284407    0.267059
H      -2.721354    0.399744   -1.674766
H      -2.891318   -2.466089   -2.132094
H      -1.162543   -1.980699   -2.262543
H      -2.056811   -3.831770    0.491634
