18

C       0.186564    0.930844    0.488947
O       0.066213   -0.349679   -0.080574
C       0.565804   -0.446406   -1.402218
C       2.119322   -0.555754   -1.462068
C       2.403927   -2.039038   -1.576546
O       1.729580   -2.827997   -0.589985
C       1.163901   -2.753023   -1.903847
C       0.025493   -1.761163   -2.017149
H       1.233917    1.242564    0.620987
H      -0.321645    1.696141   -0.120523
H      -0.286972    0.891235    1.473006
H       0.219537    0.427456   -1.974511
H       2.514806   -0.038104   -2.344488
H       2.585808   -0.107265   -0.580262
H       3.389171   -2.395764   -1.868615
H       1.147041   -3.686787   -2.461032
H      -0.873780   -2.077098   -1.482603
H      -0.234848   -1.622603   -3.072879
