20

C      -0.145380    1.438504   -0.152290
C       1.270815    0.988265    0.094258
C       0.151563   -0.026974    0.067522
C      -0.281176   -0.699633    1.325222
C      -0.364217   -0.168456    2.757180
N      -0.852715   -1.595482    2.972646
C      -1.574598   -1.545205    1.600202
C      -0.940351   -2.871565    1.171684
C       0.155955   -2.091872    1.903346
H      -0.650346    1.975774    0.643636
H      -0.420200    1.760974   -1.150288
H       1.970153    1.000999   -0.734160
H       1.715537    1.223653    1.055492
H       0.104738   -0.658300   -0.816494
H       0.570415    0.054067    3.284088
H      -1.122099    0.588663    2.987548
H      -2.611960   -1.209507    1.538502
H      -1.311709   -3.765095    1.680236
H      -0.806360   -3.041298    0.100684
H       1.160611   -2.401215    2.199302
