14

N       0.067422   -1.162307   -0.010640
C       0.034456   -0.007019   -0.010846
C      -0.009635    1.438163    0.017783
C      -0.328531    2.258238    1.319054
C       0.397809    3.329357    0.445341
N       1.298581    2.225285   -0.111483
C      -0.579356    3.465913   -0.729011
C      -0.859862    2.197448   -1.021569
H      -1.377533    2.409251    1.583892
H       0.258297    1.926242    2.180646
H       0.874493    4.216065    0.857293
H       1.904957    1.915618    0.655521
H      -0.918682    4.382960   -1.185719
H      -1.482938    1.744715   -1.776626
