12

N       0.050140    1.297104    0.165774
C      -0.053800   -0.050177    0.061920
N      -1.147295   -0.755745    0.028386
N      -0.631468   -2.049031    0.010407
C      -0.967634   -3.372826   -0.035084
N       0.140897   -4.085076   -0.054127
N       1.248455   -3.233104   -0.024835
C       0.716373   -2.050285    0.013165
O       1.128473   -0.747293    0.050640
H       0.897525    1.705166   -0.198157
H      -0.797166    1.806578   -0.032951
H      -1.974772   -3.752239   -0.049388
