17

C      -0.051187    1.536865   -0.006670
C      -0.060423    0.034039    0.037416
N       0.348780   -0.767811   -1.210320
C      -0.347097   -1.912690   -0.471749
C       0.576703   -2.016232    0.744165
C       0.769694   -0.737180    1.077900
C      -1.325975   -0.841191    0.032605
N      -2.556269   -0.590980    0.139565
O      -3.341900   -1.736816   -0.147928
H       0.955988    1.905150   -0.224075
H      -0.734128    1.912874   -0.773670
H      -0.369545    1.949386    0.955393
H      -0.276280   -0.474838   -1.969989
H      -0.640556   -2.798202   -1.027910
H       0.936168   -2.926453    1.199971
H       1.334711   -0.295537    1.885753
H      -4.234198   -1.400838   -0.012979
