16

C      -0.024410    1.403292    0.075313
C       1.419296    1.942594   -0.006682
O       2.219992    1.498020    1.089428
C       2.010484    0.171321    1.331946
C       0.987860   -0.552146    0.800515
N      -0.086355   -0.066197    0.056156
O       1.040036   -1.838284    1.239955
C       2.136551   -1.920496    2.054128
C       2.764547   -0.718373    2.159456
H      -0.479074    1.755404    1.008180
H      -0.612376    1.798951   -0.756750
H       1.879434    1.613279   -0.950103
H       1.430777    3.034899    0.028946
H      -0.119731   -0.436635   -0.888972
H       2.339605   -2.896748    2.459916
H       3.649303   -0.494667    2.733384
