14

N      -0.067113    1.239039    0.007640
C      -0.025610   -0.015831    0.000680
C      -1.259399   -0.946537    0.002535
C      -0.572552   -2.269177   -0.008313
C       0.780446   -2.088320   -0.014807
O       1.155614   -0.761028   -0.009788
C       1.367510   -3.360261   -0.024833
N       0.400463   -4.288431   -0.024529
N      -0.767818   -3.606941   -0.014395
H       0.872066    1.639295    0.004609
H      -1.870545   -0.748415    0.889109
H      -1.880289   -0.739007   -0.875070
H       2.403380   -3.658393   -0.032129
H      -1.627661   -4.127931   -0.012423
