19

C      -0.042609    1.451392   -0.075771
N       0.025565    0.015152    0.129488
C      -1.243702   -0.712071    0.184630
C      -1.151715   -1.954619    1.054221
N      -1.077917   -3.241786    0.340721
C       0.126032   -2.702853    0.998938
C       1.204323   -2.144596    0.088380
C       1.237475   -0.617642    0.014402
O       2.286853   -0.017761   -0.151680
H       0.974859    1.839536   -0.084176
H      -0.526437    1.697782   -1.030593
H      -0.614289    1.925108    0.730826
H      -1.991792   -0.023515    0.589662
H      -1.579791   -1.000134   -0.821247
H      -1.691836   -1.921954    1.995831
H      -1.487701   -3.976899    0.911335
H       0.467072   -3.191095    1.907534
H       2.203907   -2.459359    0.392118
H       1.039069   -2.521376   -0.928160
