20

C      -0.057297    1.545986    0.128707
C      -0.051655    0.020970    0.000427
C       0.727509   -0.471405   -1.226374
O       2.074565   -0.011108   -1.232366
C       0.683594   -1.999326   -1.355926
C       1.478871   -2.659160   -2.503567
O       2.288111   -3.393721   -1.525397
C       1.660674   -2.764428   -0.479353
N       1.899583   -2.790159    0.754309
H       0.963012    1.936072    0.169224
H      -0.555301    2.013384   -0.728260
H      -0.582776    1.861777    1.034596
H       0.384726   -0.440556    0.895328
H      -1.080607   -0.354999   -0.066628
H       0.283644   -0.037422   -2.132340
H       2.479718   -0.309791   -0.407837
H      -0.341806   -2.368128   -1.268289
H       0.937352   -3.345531   -3.157213
H       2.107255   -1.974288   -3.075979
H       2.684956   -3.407466    0.969300
