21

C      -0.037611    1.506484    0.054753
C      -0.044114    0.017952   -0.026818
C      -0.053917   -0.789354   -1.088831
C       0.028897   -2.250521   -0.589988
C      -0.362375   -3.334206   -1.579743
C      -0.832011   -2.077562    0.702937
C       0.049397   -0.903230    1.215899
C       1.418971   -1.610004    1.166960
C       1.408510   -2.402086    0.096078
H       0.881780    1.871621    0.532635
H      -0.107881    1.965391   -0.935650
H      -0.871400    1.880230    0.663150
H      -0.056407   -0.508782   -2.135205
H       0.314962   -3.348807   -2.441221
H      -0.328901   -4.325407   -1.115056
H      -1.377072   -3.174345   -1.959304
H      -1.865020   -1.786076    0.489498
H      -0.806382   -2.955654    1.355857
H      -0.216100   -0.438684    2.166506
H       2.229159   -1.429101    1.860832
H       2.209094   -3.019567   -0.291599
