16

O       0.026479    0.053496   -0.034074
C       0.020237    1.251826   -0.002880
C      -1.201721    2.201701    0.017031
C      -0.416825    3.535464    0.054817
C       0.697550    3.285547   -1.014869
C       1.189980    2.227644    0.027152
C       0.689088    3.230027    1.118849
C      -1.178407    4.763743    0.083715
N      -1.779884    5.750800    0.107158
H      -1.820181    2.084958   -0.876710
H      -1.827167    2.038756    0.898599
H       0.382586    2.942011   -2.002820
H       1.384370    4.128642   -1.100406
H       2.191903    1.807631    0.020196
H       1.375029    4.067396    1.253554
H       0.366382    2.835637    2.085071
