18

C      -0.205299    0.726317    0.944972
O      -0.227419   -0.635469    0.580545
C      -1.172127   -0.895664   -0.437752
C      -1.166584   -2.311083   -0.779232
C      -1.181230   -3.476037   -1.080850
C      -1.196912   -4.893957   -1.420027
O      -2.239864   -5.629754   -0.771418
C      -2.095361   -5.806882    0.560823
N      -2.977112   -6.437290    1.204852
H       0.545368    0.837061    1.730193
H       0.067859    1.372884    0.095926
H      -1.180142    1.062147    1.332619
H      -2.185289   -0.600707   -0.112686
H      -0.946782   -0.297365   -1.338153
H      -1.381974   -5.031885   -2.488825
H      -0.220213   -5.345190   -1.196237
H      -1.177331   -5.363079    0.967599
H      -2.715626   -6.492120    2.187113
