16

C       0.053148    1.548940    0.077848
N       0.005307    0.103348    0.064253
C       0.653019   -0.618111    1.007098
N       1.332753   -0.071164    1.945182
N       0.519547   -2.033334    0.873988
C      -0.168384   -2.757194   -0.067657
O      -0.810746   -2.283502   -0.990947
C      -0.061447   -4.192533    0.138010
C       0.012935   -5.382805    0.288390
H       1.082126    1.913896   -0.011280
H      -0.533024    1.922058   -0.764203
H      -0.359171    1.952214    1.009163
H      -0.509680   -0.403619   -0.640056
H       1.753855   -0.756574    2.566322
H       1.004625   -2.567862    1.578008
H       0.070574   -6.437494    0.409928
