17

N       0.225329    0.961473   -0.555537
C      -0.014642   -0.277961   -0.044105
O       0.875816   -1.057559    0.239680
C      -1.504011   -0.627972    0.176126
C      -2.315607   -0.673768   -1.131612
C      -2.278567   -2.153288   -1.535345
O      -2.644765   -2.608401   -2.585212
C      -1.683227   -2.927540   -0.364009
N      -1.672847   -1.967936    0.743701
H       1.181006    1.267135   -0.643633
H      -0.507537    1.635838   -0.691481
H      -1.910043    0.121480    0.868047
H      -3.361198   -0.398586   -0.956450
H      -1.932500   -0.044144   -1.936882
H      -2.285134   -3.813556   -0.139016
H      -0.679890   -3.265570   -0.669105
H      -0.894365   -2.159225    1.365889
