13

F       0.018474    0.057003   -0.042493
C      -0.024179    1.399245    0.018620
F       1.244815    1.838391   -0.044328
F      -0.655139    1.832485   -1.081725
C      -0.720311    1.879813    1.274581
C      -0.009982    1.391493    2.551799
C      -0.677744    1.853233    3.761075
C      -1.248932    2.247777    4.741579
H      -0.749024    2.971854    1.243986
H      -1.750965    1.517602    1.245160
H       0.031892    0.296362    2.542898
H       1.028413    1.741882    2.541314
H      -1.742816    2.588295    5.617707
