17

O       0.069899    1.359909    0.050801
C      -0.050467   -0.020071   -0.004105
C      -1.370261   -0.726686    0.002957
C      -2.606292    0.106914   -0.329706
C      -2.351258    0.597888   -1.739717
C      -1.224986    0.095490   -2.255651
C      -0.487787   -0.766271   -1.279525
C       0.233109   -1.919642   -1.717735
C       0.851629   -2.885328   -2.083623
H      -0.459351    1.731092   -0.668373
H       0.759421   -0.493516    0.540116
H      -1.475723   -1.620092    0.606628
H      -3.527441   -0.485277   -0.273201
H      -2.724148    0.939972    0.376210
H      -3.018722    1.284252   -2.248502
H      -0.839478    0.283911   -3.250374
H       1.393769   -3.738650   -2.407436
