17

C      -0.031216    1.556167   -0.045229
C      -0.014426    0.060045    0.045609
C      -0.886848   -0.774683    0.975233
O      -1.733769   -1.802574    0.587399
C       0.592557   -0.932185    1.044597
O       0.998925   -1.836377    0.002232
C       0.597536   -0.864139   -1.017968
C      -0.224940   -1.407505   -2.084841
C      -0.880417   -1.842600   -2.993788
H       0.950371    1.956702   -0.324254
H      -0.757923    1.893597   -0.793316
H      -0.313404    2.004485    0.912428
H      -1.326235   -0.180547    1.772673
H      -1.181340   -2.475433    0.166781
H       1.249503   -0.832879    1.901901
H       1.506655   -0.417136   -1.441348
H      -1.475275   -2.227680   -3.785248
