17

O      -0.313343    1.051436    0.370321
C       0.055429   -0.251247   -0.078793
C       0.826317   -1.045284    1.032789
C      -0.235854   -1.839269    1.761513
O      -1.362015   -1.061498    2.178556
C      -1.477129   -1.833597    0.978400
C      -1.277458   -1.034004   -0.290201
C       0.847494   -0.149057   -1.309382
C       1.518265   -0.039076   -2.301347
H       0.486443    1.588322    0.395257
H       1.556192   -1.728976    0.586871
H       1.364928   -0.350426    1.683974
H       0.045522   -2.653500    2.425362
H      -2.202103   -2.643443    1.008414
H      -2.082271   -0.321730   -0.485532
H      -1.197383   -1.711138   -1.145783
H       2.101179    0.056151   -3.184161
