15

O      -0.029107    0.091064    0.695180
C      -0.058023    1.143472    0.128245
C      -1.352149    1.920799   -0.113892
N      -1.293623    3.087810   -0.987087
C      -0.053264    3.814096   -0.798651
C       1.169757    2.912629   -1.038806
O       1.129732    1.719277   -0.242014
C       1.261430    2.544509   -2.463963
N       1.292009    2.281392   -3.588482
H      -2.093935    1.208400   -0.480284
H      -1.691329    2.229260    0.885213
H      -1.387500    2.809975   -1.959004
H      -0.010780    4.675436   -1.470601
H      -0.005760    4.185905    0.231770
H       2.096894    3.420994   -0.753487
