25

C      -0.191099    1.526303   -0.127292
C       0.034698    0.017288   -0.061192
C       1.298057   -0.457971   -0.840302
C       2.073710   -0.522248    0.501951
C       0.709765   -0.520879    1.247857
C       0.558949    0.227949    2.568868
C       1.305457   -0.428811    3.713580
C       2.749482   -0.091227    3.995072
C       1.667657    0.355009    4.948744
H       0.722179    2.087027    0.101088
H      -0.510142    1.819174   -1.133685
H      -0.965717    1.852792    0.574719
H      -0.895696   -0.493491   -0.330338
H       1.161580   -1.448166   -1.284142
H       1.681576    0.215704   -1.612094
H       2.741087   -1.371608    0.665441
H       2.639949    0.395320    0.690843
H       0.387504   -1.559258    1.396962
H       0.911334    1.261829    2.458762
H      -0.508455    0.294736    2.825125
H       1.027825   -1.466942    3.884074
H       3.418771   -0.884989    4.308432
H       3.221993    0.666918    3.379200
H       1.415264    1.410508    4.969289
H       1.596038   -0.134946    5.913656
