23

C       0.100538    1.591241    0.361828
C      -0.038683    0.117426    0.045170
C       1.135145   -0.654007   -0.511624
C       0.649374   -0.897524    0.905435
O      -1.314401   -0.286025   -0.377108
C      -1.688800    0.152573   -1.672750
C      -2.996342   -0.536182   -2.039305
C      -3.515160   -0.119991   -3.409112
O      -4.726775   -0.821192   -3.643825
H       1.090846    1.804582    0.773930
H      -0.026025    2.214878   -0.529597
H      -0.650528    1.894167    1.099070
H       0.920493   -1.424420   -1.243593
H       2.078207   -0.138218   -0.658638
H       1.257075   -0.547543    1.732760
H       0.108709   -1.818141    1.091075
H      -1.816568    1.246513   -1.693462
H      -0.899584   -0.095695   -2.400332
H      -2.852567   -1.621717   -2.023537
H      -3.753201   -0.302845   -1.282913
H      -3.675679    0.970714   -3.433957
H      -2.764233   -0.353870   -4.182208
H      -5.061509   -0.561267   -4.506881
