20

C       0.037797    1.451388   -0.246364
C       0.063025    0.013159    0.288522
C      -1.303383   -0.636507    0.233363
N      -1.984731   -1.093017   -0.993356
C      -0.947912   -1.744376   -1.872589
C      -0.580371   -2.798775   -0.805012
C      -1.580428   -2.094699    0.123133
C      -2.512896   -2.776362    0.958214
C      -3.270455   -3.377815    1.674681
H       1.024759    1.916886   -0.168474
H      -0.268490    1.477738   -1.296838
H      -0.670036    2.068333    0.317105
H       0.808037   -0.573724   -0.256078
H       0.387535    0.014320    1.336567
H      -2.031824   -0.125819    0.862269
H      -1.441749   -2.166600   -2.749024
H      -0.156899   -1.067888   -2.209133
H      -0.910557   -3.802704   -1.073360
H       0.453605   -2.850225   -0.452359
H      -3.947094   -3.900814    2.303973
