18

C       0.084844    1.625682    0.021954
C       0.076625    0.105600    0.011120
C       1.105412   -0.640102   -0.883134
C       1.298267   -1.689677    0.247017
O       2.660573   -2.018472    0.447968
C       0.656806   -0.655598    1.235235
C       0.480984   -2.888456    0.081690
C      -0.175155   -3.891651   -0.019348
H       1.087805    2.011966    0.236495
H      -0.228719    2.031900   -0.946263
H      -0.595441    2.022031    0.784035
H      -0.932111   -0.261371   -0.204707
H       0.789338   -1.005990   -1.861184
H       2.034397   -0.071580   -0.986016
H       2.701412   -2.773142    1.045493
H       1.461128   -0.090500    1.715878
H      -0.033308   -1.034498    1.991588
H      -0.755705   -4.775049   -0.122514
