18

C      -0.033631    1.533622    0.100281
C       1.214526    0.723836   -0.132538
O       2.257441    0.421742    0.766018
C       2.583248   -0.923209    0.686474
N       1.879663   -1.937808    0.416122
C       0.422641   -1.966267    0.316490
C      -0.209174   -0.890353    1.240149
C      -0.085729    0.025055    0.023402
C      -0.234313   -1.191341   -0.895819
H      -0.237032    1.930862    1.089683
H      -0.346375    2.178829   -0.714943
H       1.591253    0.776602   -1.153415
H       3.643082   -1.042740    0.909154
H       0.102263   -3.003033    0.437360
H      -1.256487   -1.106451    1.474838
H       0.332118   -0.636937    2.153532
H       0.299578   -1.178760   -1.848401
H      -1.261273   -1.541909   -1.041302
