16

O      -0.075260    0.013307   -0.425240
C      -0.041535    1.169430   -0.073486
C      -1.311684    1.909617    0.330409
O      -1.139421    3.284808    0.645778
C       0.160656    3.775905    0.646041
C       1.148565    3.457871   -0.514844
N       2.242302    3.877880    0.442832
C       1.344908    2.956924    1.241057
C       1.213672    1.984238    0.018301
H      -2.037264    1.820587   -0.486909
H      -1.738029    1.389771    1.199268
H       0.124844    4.821586    0.947078
H       1.122640    3.785609   -1.554633
H       3.097267    3.368007    0.202081
H       1.552265    2.693772    2.278962
H       2.102925    1.407246   -0.247952
