18

C       0.055081    1.326623    0.296612
O      -0.016256    0.012621   -0.248391
C      -1.248338   -0.571459   -0.125773
C      -1.787309   -1.110295    1.168616
C      -1.576012   -2.047525   -0.002943
C      -2.739349   -1.904830   -0.988818
C      -2.381790   -0.379659   -1.165555
C      -3.411091    0.609189   -0.880351
N      -4.228164    1.387326   -0.624964
H       1.083715    1.666419    0.162826
H      -0.622222    2.016399   -0.223422
H      -0.195008    1.326352    1.365248
H      -1.036353   -1.192106    1.947600
H      -2.788183   -0.870986    1.520031
H      -0.898560   -2.889228    0.054950
H      -2.608366   -2.455559   -1.921183
H      -3.734678   -2.108167   -0.585958
H      -1.958889   -0.194449   -2.155685
