18

C       0.139194    1.444618    0.056268
N      -0.209199    0.040583   -0.115146
C       0.466958   -0.675102   -1.102166
C       0.579430   -2.036618   -1.301775
C       0.406481   -3.538006   -1.113775
C       1.228178   -3.665548   -2.453120
N       1.298112   -2.187326   -2.460970
C       1.604851   -0.966801   -2.948801
N       1.118147   -0.036313   -2.133130
H       1.194913    1.611464    0.320128
H      -0.053226    1.980497   -0.875017
H      -0.493659    1.867835    0.841032
H      -0.248997   -0.461344    0.760218
H       0.896623   -3.983044   -0.242905
H      -0.615815   -3.921385   -1.177142
H       2.204395   -4.148741   -2.367718
H       0.680283   -4.079424   -3.302878
H       2.164952   -0.781663   -3.851201
