14

O       0.320256    1.246161    0.611922
C       0.008802    0.003686    0.088149
C      -1.478841   -0.342549   -0.121271
O      -2.423112    0.029076    0.514348
C      -1.472609   -1.339632   -1.267096
C      -1.306097   -0.791665   -2.645951
N      -0.139535   -1.312627   -1.916003
C       0.599688   -0.271475   -1.289006
O       1.508635    0.346365   -1.775120
H       1.047916    1.589480    0.071457
H       0.360314   -0.827252    0.737153
H      -1.943091   -2.306154   -1.122446
H      -1.622591   -1.396185   -3.489240
H      -1.373221    0.282707   -2.796964
