15

N       0.050407    1.395866    0.183620
C      -0.078502    0.029314    0.039409
C      -1.116159   -0.849178    0.020291
O      -2.481057   -0.860063    0.068339
C      -2.850624   -2.221754   -0.292422
C      -1.606602   -3.146034   -0.076350
C      -0.518897   -2.111948   -0.073751
N       0.786708   -2.079932   -0.111952
O       1.072485   -0.686591   -0.033956
H       0.914369    1.753701   -0.202386
H      -0.750527    1.911388   -0.154345
H      -3.710062   -2.499870    0.319904
H      -3.148425   -2.225014   -1.347744
H      -1.651581   -3.672718    0.882736
H      -1.515172   -3.893568   -0.867185
