20

C      -0.446722    1.540141    0.359492
C      -0.107373    0.061805    0.206740
C       0.289823   -0.454960   -1.183899
C       1.605441    0.096309   -1.631132
C       1.608930   -1.027163   -0.617021
C       2.225043   -2.284773   -0.882792
N       2.724439   -3.312070   -1.074996
C       1.244934   -0.512238    0.793844
C       2.235909    0.400311    1.503810
H       0.331217    2.192645   -0.047769
H      -1.379846    1.774260   -0.163999
H      -0.583453    1.804202    1.413416
H      -0.937202   -0.533835    0.597486
H      -0.377289   -0.946041   -1.881763
H       1.916159   -0.194547   -2.628555
H       1.937048    1.086146   -1.333464
H       1.018252   -1.364875    1.439028
H       2.526401    1.259375    0.892636
H       1.809099    0.785265    2.435796
H       3.147835   -0.150043    1.757623
