20

C       0.032599    1.497463    0.008360
O       1.220846    0.706397    0.072564
C      -0.053373    0.033692    0.016968
C      -0.389489   -0.736127    1.274508
C       0.424324   -2.038846    1.277106
C       0.282003   -2.818967   -0.018103
C      -1.045589   -3.032071   -0.654107
N      -0.063929   -2.148537   -1.280326
C      -0.338226   -0.702518   -1.283715
H      -0.210547    2.057629    0.911101
H      -0.114893    2.043330   -0.923829
H      -0.144409   -0.134556    2.154315
H      -1.466022   -0.942815    1.310847
H       1.480199   -1.777232    1.412209
H       0.144224   -2.675076    2.124597
H       1.031100   -3.599364   -0.145423
H      -1.261983   -3.950951   -1.194127
H      -1.915604   -2.581767   -0.177999
H      -1.388441   -0.550764   -1.564639
H       0.277253   -0.241823   -2.064057
