17

C      -0.282710    1.553129    0.003749
C       0.040778    0.064884    0.012359
C       1.178647   -0.520577   -0.900075
C       1.754502   -1.246169    0.323065
C       2.193287   -0.248392    1.373620
C       2.799738    1.014992    1.044979
N       3.311256    2.018566    0.778779
C       0.719330   -0.589179    1.227803
H       0.601717    2.170191    0.175549
H      -0.711514    1.843971   -0.961498
H      -1.019582    1.793113    0.778341
H      -0.874529   -0.501259   -0.189785
H       0.802961   -1.194919   -1.671139
H       1.849170    0.208486   -1.363772
H       2.143967   -2.256504    0.343328
H       2.640814   -0.708427    2.250327
H       0.201926   -1.001373    2.086789
