18

C      -0.061806    1.390436    0.035646
N      -0.079113   -0.061927    0.034715
C       0.521617   -0.655255    0.978247
O       1.188271   -0.083156    2.033442
C       1.683107   -1.112229    2.837223
C       1.363264   -2.294096    2.286915
N       1.700131   -3.608343    2.613517
N       0.635628   -2.027691    1.126827
C       0.147780   -2.975923    0.152836
H       0.957674    1.802293    0.004534
H      -0.597152    1.753140   -0.846039
H      -0.550922    1.815915    0.924220
H       2.223782   -0.829141    3.721166
H       2.290400   -3.647318    3.434510
H       0.888009   -4.199425    2.761622
H      -0.880202   -3.295153    0.366169
H       0.154992   -2.489252   -0.824445
H       0.802144   -3.850744    0.141030
