16

O      -0.153692    1.334207   -0.151817
N       0.038800   -0.049796   -0.046875
C      -1.069408   -0.657609    0.062834
C      -1.207496   -2.158442    0.169348
C      -2.709366   -2.327719    0.498732
N      -3.403205   -1.168540   -0.093868
C      -2.476718   -0.036661    0.053766
C      -2.737997    0.687156    1.311357
N      -2.943082    1.236611    2.306552
H       0.747791    1.671662   -0.191383
H      -0.967288   -2.626785   -0.792676
H      -0.536753   -2.584148    0.919269
H      -3.137253   -3.256827    0.118674
H      -2.865332   -2.306722    1.582881
H      -3.548041   -1.329522   -1.085328
H      -2.580315    0.677659   -0.768081
