18

C       0.177756    1.315205   -0.509405
C       0.012018   -0.028435    0.208869
O       0.426127    0.066497    1.571731
C      -1.386199   -0.581847    0.108125
C      -2.043691   -1.240982    1.117565
N      -3.291660   -1.607511    0.643114
C      -3.420701   -1.188948   -0.646815
O      -4.592165   -1.456119   -1.279241
C      -2.267247   -0.546074   -1.025725
H       1.198657    1.682626   -0.374585
H      -0.018103    1.221665   -1.582299
H      -0.519208    2.057953   -0.104823
H       0.723355   -0.740871   -0.230746
H      -0.233153    0.608065    2.021646
H      -1.722758   -1.500545    2.111390
H      -4.005857   -2.098568    1.151537
H      -4.537539   -1.107826   -2.173963
H      -2.075797   -0.102189   -1.990316
