21

C      -0.199817    1.468720   -0.032676
C      -0.307153   -0.058956    0.040022
C       0.935948   -0.676192    0.690818
C      -1.598699   -0.452387    0.785084
N      -1.875761   -1.878703    0.804946
C      -2.440759   -2.529857   -0.252658
N      -2.824534   -1.940439   -1.322036
C      -2.603480   -4.019598   -0.034563
O      -3.104102   -4.745835   -0.850991
H       0.693164    1.773240   -0.587353
H      -1.070130    1.906325   -0.532238
H      -0.131352    1.909087    0.969926
H      -0.401105   -0.448473   -0.980405
H       0.869505   -1.768281    0.733489
H       1.840145   -0.424699    0.127609
H       1.071293   -0.305018    1.714879
H      -1.550375   -0.104228    1.824111
H      -2.453640    0.033448    0.305300
H      -1.487221   -2.434431    1.547961
H      -3.251057   -2.638174   -1.934119
H      -2.229185   -4.413935    0.938840
