17

O       0.103350    1.236153   -0.351517
C       1.371816    0.655655   -0.055863
C       2.105251    1.066680    1.169022
C       1.654529    1.729550    2.238803
C       0.292967    2.196062    2.543183
C      -0.826413    1.464992    2.550180
C      -0.949208    0.029037    2.255079
C      -0.532800   -0.656254    1.185518
C       0.127606   -0.156949   -0.048083
H       2.013074    0.540025   -0.932101
H       3.163360    0.815258    1.138930
H       2.397114    2.000321    2.989810
H       0.224611    3.231153    2.875924
H      -1.743769    1.945598    2.888228
H      -1.489032   -0.537742    3.014100
H      -0.728153   -1.726327    1.163265
H      -0.031953   -0.795600   -0.919313
