19

C      -0.011150    1.639533   -0.015946
C       0.026085    0.091936   -0.003893
C       0.549555   -0.492357   -1.301280
C       1.814551   -0.686185   -1.684844
C       3.049709   -0.342597   -0.947439
O       3.099901    0.887953   -0.214859
C       3.148240   -0.328645    0.540792
C       2.021491   -0.656860    1.440872
C       0.716733   -0.468661    1.223859
H       1.002249    2.035425   -0.086737
H      -0.595301    1.999905   -0.869513
H      -0.478193    2.016513    0.900255
H      -1.017466   -0.238170    0.068298
H      -0.223537   -0.794025   -2.005142
H       1.987349   -1.146937   -2.654478
H       3.972225   -0.554096   -1.488583
H       4.134302   -0.531144    0.959455
H       2.321168   -1.099626    2.387706
H       0.043548   -0.756171    2.029003
