17

C      -0.067735    1.439235   -0.034776
C      -0.041791   -0.041029    0.149614
C      -1.001954   -0.942131    0.374857
C      -2.391922   -1.323719   -0.083648
C      -1.652340   -2.513587   -0.811874
C      -0.460162   -2.316856    0.197699
O       0.898623   -2.176559   -0.157938
C       1.213164   -0.820671   -0.104634
O       2.317823   -0.416661   -0.328315
H       0.516531    1.934540    0.749049
H       0.390476    1.722330   -0.988030
H      -1.087831    1.829201    0.001322
H      -3.046672   -1.680118    0.716282
H      -2.930895   -0.602004   -0.698643
H      -2.141116   -3.489620   -0.806130
H      -1.359820   -2.236142   -1.825429
H      -0.542703   -3.003873    1.045486
