16

C      -0.010798    1.557890   -0.144686
C       0.026681    0.054784    0.039334
C       1.310368   -0.724017   -0.110538
C       0.645191   -0.626848    1.241442
C       1.299149    0.132142    2.364996
O       2.241460   -0.734808    2.987208
H       0.916781    2.035730    0.182664
H      -0.149881    1.810926   -1.201706
H      -0.836194    2.012737    0.414935
H      -0.862153   -0.443900   -0.339710
H       1.298041   -1.674131   -0.632964
H       2.224276   -0.153968   -0.250311
H       0.136211   -1.522965    1.586297
H       1.793763    1.036654    1.980130
H       0.535410    0.462124    3.088420
H       2.603998   -0.277778    3.751994
