19

C      -0.044213    1.556825    0.098263
C       0.011759    0.035128    0.015254
C      -1.366155   -0.577947   -0.231569
C       1.100583   -0.572601   -0.957422
C       1.727356   -1.290453    0.245408
N       2.128942   -0.220549    1.203484
C       0.732207   -0.674863    1.185013
C       2.325614   -2.582243    0.282402
N       2.809409   -3.634310    0.300234
H       0.940290    1.968765    0.331199
H      -0.382213    1.982903   -0.852867
H      -0.746829    1.880660    0.874474
H      -1.777490   -0.231254   -1.185377
H      -1.320924   -1.671917   -0.261699
H      -2.068289   -0.291844    0.559683
H       0.672719   -1.254415   -1.694005
H       1.770054    0.137092   -1.447036
H       2.594719   -0.669444    1.992472
H       0.274771   -1.113915    2.064631
