16

O      -0.108935    0.066948    0.085612
C       0.040667    1.251391    0.068184
O      -0.969726    2.169762    0.140757
C      -0.254508    3.471400    0.074895
C      -1.086188    4.288107   -0.942468
N      -0.347826    3.538384   -2.062707
C       0.733921    3.259151   -1.022953
C       1.263596    2.131568   -0.040102
C       0.879822    3.218455    1.105265
H      -2.168785    4.152569   -0.918126
H      -0.827665    5.347872   -0.981925
H      -0.878162    2.692817   -2.262620
H       1.485433    4.044945   -1.111402
H       2.234709    1.647668   -0.106629
H       1.615050    4.020865    1.171550
H       0.622075    2.828152    2.091959
