17

C      -0.068292   -1.182666    0.286891
C      -0.000625    0.007430    0.140219
C       0.077507    1.450480   -0.033957
C       1.520530    1.988621   -0.137072
C       1.643816    3.536573   -0.003995
C       2.436502    3.224387    1.277827
O       2.236663    1.803651    1.113178
C       2.234594    1.414360   -1.272179
C       2.822373    0.971620   -2.222206
H      -0.121945   -2.234885    0.417568
H      -0.464941    1.753006   -0.938932
H      -0.401103    1.954373    0.814086
H       2.198912    4.022673   -0.804888
H       0.689698    4.045581    0.144616
H       3.499200    3.490563    1.246521
H       2.004432    3.589189    2.216290
H       3.342402    0.563440   -3.053598
