22

C      -0.311103    1.482568   -0.004820
C       0.045176   -0.003008   -0.011541
C       0.967790   -0.417067   -1.176161
C       1.552244   -1.761370   -0.721474
C       1.859659   -1.523577    0.768937
C       0.775555   -0.539754    1.243061
C       1.033368    0.308331    2.464533
C       0.010721   -0.799352    2.515760
H       0.585443    2.104849    0.089408
H      -0.815877    1.760940   -0.936160
H      -0.985740    1.738793    0.819521
H      -0.889169   -0.573442   -0.115796
H       0.438970   -0.470322   -2.132869
H       1.773763    0.320974   -1.289550
H       0.796776   -2.548950   -0.832307
H       2.431339   -2.070682   -1.293957
H       1.873858   -2.449221    1.352859
H       2.851937   -1.066507    0.870832
H       1.973892    0.160586    2.987050
H       0.676836    1.332325    2.483016
H      -1.037995   -0.516681    2.546106
H       0.244114   -1.694057    3.084773
