14

C      -0.849002    0.909834   -0.178911
C       0.558550    0.355398    0.104217
C       1.225754   -0.168502   -1.120665
N       1.553816   -1.396596   -1.403152
C       2.106961   -1.256743   -2.652383
O       2.590250   -2.293082   -3.335778
N       2.132708   -0.041658   -3.135927
O       1.533092    0.695818   -2.091742
H      -0.808346    1.725914   -0.904597
H      -1.503688    0.129894   -0.577832
H      -1.294184    1.291171    0.743661
H       1.186765    1.145180    0.531463
H       0.517437   -0.462747    0.826549
H       2.465507   -3.076440   -2.786160
