12

N       0.038038   -3.720416   -0.018342
C       0.027264   -2.557672   -0.011728
C       0.014638   -1.195566   -0.003979
C      -0.003939    0.015975    0.003008
C       0.000112    1.421171    0.010736
C      -1.096432    2.245179    0.029675
O      -0.716022    3.535425    0.031885
C       0.648485    3.559389    0.014050
C       1.146607    2.301700    0.000532
H      -2.155642    2.050336    0.042500
H       1.097174    4.538322    0.013578
H       2.182732    2.006221   -0.014728
