14

N      -0.094268   -1.171076    0.047235
C      -0.056994   -0.014357    0.012366
C      -0.006440    1.402683   -0.023090
C      -0.636557    2.491343    0.799592
O       0.554150    3.191948    1.022451
C       1.224684    2.370539   -0.027674
C       1.103056    3.172253   -1.295788
C      -0.191903    3.203484   -1.639380
C      -0.981154    2.349953   -0.716316
H      -1.386449    2.483170    1.580337
H       2.196130    2.024040    0.315424
H       1.906422    3.760755   -1.716711
H      -0.641712    3.816629   -2.409383
H      -1.976486    1.991777   -0.946741
