25

C      -0.141605    1.522121    0.012241
C      -0.054801    0.005398    0.002675
O      -1.364473   -0.522265    0.012583
C      -1.397507   -1.931775    0.005046
C      -2.851989   -2.381909    0.016691
C      -2.990992   -3.898125    0.010099
O      -4.363049   -4.222473    0.021216
C      -4.607896   -5.613083    0.016625
C      -6.109674   -5.842401    0.028975
H       0.860279    1.961809    0.004674
H      -0.685476    1.880700   -0.866292
H      -0.667659    1.870591    0.905565
H       0.490564   -0.345297   -0.890754
H       0.508059   -0.355485    0.881070
H      -0.878504   -2.322707   -0.888395
H      -0.861254   -2.332591    0.883804
H      -3.348980   -1.976844    0.904285
H      -3.365983   -1.967661   -0.856872
H      -2.502674   -4.327694   -0.882902
H      -2.486113   -4.336900    0.889306
H      -4.152977   -6.077153   -0.875739
H      -4.137066   -6.085792    0.896109
H      -6.558435   -5.396584    0.921194
H      -6.574298   -5.387971   -0.850690
H      -6.332225   -6.913669    0.025765
