17

C       0.326188    1.651387   -0.035439
C       0.079775    0.161946    0.031890
C       1.211696   -0.843508   -0.137411
C       2.557195   -0.395971   -0.345117
N       3.646540   -0.029158   -0.489637
C       0.501497   -0.681363    1.213233
C       1.038063   -0.098685    2.503875
N       2.262041    0.497414    2.502300
O       0.336113   -0.155151    3.495912
H       1.271171    1.934510    0.432085
H       0.345209    1.990101   -1.075838
H      -0.476245    2.186156    0.481819
H      -0.848667   -0.155971   -0.433841
H       0.985155   -1.762520   -0.668211
H      -0.165006   -1.502245    1.451334
H       2.929460    0.392110    1.754602
H       2.597271    0.818662    3.396842
