19

C       0.023278    1.576291   -0.086703
C       0.001773    0.048909    0.008043
C      -1.415452   -0.534185    0.035714
O      -2.166467   -0.159174   -1.118811
C      -1.409364   -2.058135    0.216722
C      -2.839533   -2.628752    0.269722
C      -2.862721   -4.086705    0.340601
N      -2.861095   -5.241196    0.394936
H       1.047480    1.952424   -0.162593
H      -0.536099    1.918458   -0.961273
H      -0.435732    2.030964    0.797859
H       0.541917   -0.389408   -0.844467
H       0.536945   -0.282238    0.906491
H      -1.967888   -0.082192    0.871093
H      -1.667981   -0.438257   -1.895987
H      -0.863391   -2.522710   -0.614333
H      -0.869830   -2.321256    1.132753
H      -3.375297   -2.228258    1.138485
H      -3.391288   -2.300006   -0.616371
