21

C      -0.018153    1.506096   -0.123930
C      -0.007544    0.010820    0.056976
O       1.264782   -0.650610   -0.057573
C       0.628275   -0.653263    1.201312
C       1.171537   -0.043228    2.493464
C       0.323548   -1.096729    3.266488
C       0.163880   -1.922472    1.945433
C      -1.195926   -2.519943    1.622256
O       1.198943   -2.886111    1.801890
H       0.809555    1.972359    0.415999
H       0.077671    1.764119   -1.183768
H      -0.960053    1.931444    0.240312
H      -0.816760   -0.522137   -0.446022
H       2.244470   -0.221096    2.595352
H       0.961561    1.011348    2.684830
H       0.821318   -1.623853    4.083078
H      -0.627042   -0.691814    3.623686
H      -1.989705   -1.769353    1.684319
H      -1.193190   -2.948620    0.615269
H      -1.441499   -3.322449    2.329337
H       1.011164   -3.606771    2.413496
