19

C       0.239464    1.245376    0.264625
O      -0.287743    0.037924   -0.275812
C       0.542710   -0.659490   -1.067254
N       0.170648   -1.742485   -1.594531
C       1.098718   -2.426614   -2.418927
C       2.569663   -2.120604   -2.846732
N       2.286325   -3.445125   -3.564285
C       1.614648   -3.875553   -2.249845
C       0.917227   -2.831749   -3.901201
H       1.114216    1.052851    0.897136
H       0.512880    1.952918   -0.527181
H      -0.553670    1.679550    0.873847
H       1.537429   -0.207643   -1.201879
H       2.750050   -1.287047   -3.531868
H       3.358071   -2.197050   -2.092188
H       2.323298   -4.076661   -1.441508
H       0.897760   -4.691494   -2.369924
H       0.150608   -3.573257   -4.139037
H       0.964909   -2.043608   -4.657902
