15

N      -0.134316   -1.166704    0.004354
C      -0.078918   -0.008881    0.006931
C       0.009128    1.398460    0.009305
C      -0.741320    2.474972    0.786118
C       0.569879    3.122033    1.229756
C       1.214779    2.438319   -0.006124
C       0.533000    3.128494   -1.218392
C      -0.764288    2.478990   -0.738880
H      -1.647963    2.329070    1.358143
H       0.622537    4.214956    1.278347
H       0.925723    2.689688    2.167782
H       2.269519    2.177755   -0.022700
H       0.584257    4.221663   -1.262782
H       0.860398    2.701135   -2.168978
H      -1.687760    2.336029   -1.284098
