15

C       0.002848    1.472574    0.041960
N      -0.044932    0.029399   -0.081464
C      -1.214849   -0.663711   -0.024463
N      -2.379442   -0.023105   -0.011672
C      -3.491186   -0.778677    0.008302
C      -3.454666   -2.157705    0.026852
N      -2.272535   -2.816133    0.027078
C      -1.209809   -2.084536    0.001214
F      -0.013081   -2.689922    0.005824
H       1.027387    1.804132   -0.137269
H      -0.654816    1.934773   -0.698266
H      -0.316583    1.819107    1.033570
H       0.794943   -0.501361    0.071724
H      -4.437291   -0.245210    0.014297
H      -4.355499   -2.760347    0.045943
