17

O      -0.206586    1.394286    0.113248
C      -0.131344    0.009308    0.033265
C      -1.405977   -0.782118   -0.042007
C      -2.753635   -0.079365    0.009289
C      -3.344416   -0.129483    1.342541
C      -3.822665   -0.190171    2.443299
C      -0.512019   -0.671709   -1.282333
C      -0.866751    0.172935   -2.381113
C      -1.121022    0.932299   -3.281164
H      -0.042992    1.759784   -0.765527
H       0.707234   -0.416635    0.580167
H      -1.388564   -1.759073    0.430584
H      -2.624627    0.963227   -0.296901
H      -3.438705   -0.538050   -0.714533
H      -4.249301   -0.228954    3.414619
H       0.045871   -1.564365   -1.548512
H      -1.369997    1.571351   -4.092119
