23

C      -0.187759    1.609590    0.024307
C      -0.038419    0.090041    0.173650
C      -1.377022   -0.630238    0.073593
C      -2.100772   -0.862058   -1.299549
C      -1.083414   -1.999083   -1.596102
C      -1.474737   -2.186059   -0.100745
C      -2.932916   -1.973421   -0.569112
O      -3.861352   -1.636732    0.419644
C      -5.107714   -1.233475   -0.103551
H       0.773429    2.118499    0.146759
H      -0.581503    1.873829   -0.963138
H      -0.877605    2.014355    0.773166
H       0.681167   -0.276257   -0.565957
H       0.398798   -0.134604    1.155760
H      -2.051282   -0.251918    0.845916
H      -2.465631   -0.108799   -2.000234
H      -1.410287   -2.781351   -2.288099
H      -0.056831   -1.704774   -1.806757
H      -1.119406   -2.955519    0.586858
H      -3.341742   -2.752289   -1.230418
H      -5.773245   -1.052272    0.743757
H      -5.026821   -0.310348   -0.696301
H      -5.550473   -2.014200   -0.741774
