14

N      -0.313415    1.567864    0.015740
C       0.044571    0.159097    0.004224
C      -1.119400   -0.691186    0.267097
N      -2.004766   -1.417721    0.424002
C       0.812905   -0.274552   -1.295999
O       1.425175    0.552706   -1.916903
N       0.764356   -1.629376   -1.586934
C       1.447005   -2.299943   -2.611020
O       2.224517   -1.810496   -3.377557
H       0.494854    2.079703   -0.332990
H      -1.055146    1.733281   -0.660004
H       0.759835   -0.018763    0.821840
H       0.135146   -2.194619   -1.031435
H       1.167826   -3.371705   -2.612252
