18

C       0.403796    1.392413    0.003295
C       0.068962   -0.085590    0.055128
C      -1.396381   -0.383693   -0.233539
O       0.915474   -0.867605   -0.864903
C       1.363078   -1.734769    0.191374
C       0.608675   -0.909954    1.248661
O       1.872818   -0.427268    1.786169
C       2.605149   -1.206136    0.891614
N       3.838991   -1.369516    0.771996
H       1.446490    1.567529    0.272593
H       0.235647    1.770930   -1.009694
H      -0.234193    1.957282    0.690619
H      -1.650727   -0.056608   -1.245823
H      -1.601724   -1.456259   -0.163090
H      -2.044772    0.141689    0.475625
H       1.279820   -2.797477   -0.034143
H      -0.061919   -1.263567    2.029440
H       4.362781   -0.804173    1.442993
