25

C       0.004860    1.664552   -0.585861
C       0.109322    0.194563   -0.159303
C      -1.246385   -0.490663   -0.163572
C      -1.889226   -1.166059   -1.347856
C      -0.870776   -2.004750   -2.132318
C      -0.630978   -2.877511   -0.854588
C       0.776482   -3.183782   -0.349865
C      -1.584048   -1.960017   -0.060738
C      -2.519510   -2.484334    0.995038
H       0.984153    2.153394   -0.575316
H      -0.404589    1.750934   -1.597976
H      -0.655001    2.225750    0.085398
H       0.808783   -0.318509   -0.824599
H       0.545779    0.135177    0.846459
H      -1.982400    0.090903    0.394424
H      -2.853431   -0.852064   -1.732675
H      -1.312082   -2.572258   -2.954522
H      -0.002924   -1.463024   -2.523983
H      -1.150746   -3.831977   -1.002650
H       1.372987   -2.282157   -0.192525
H       0.737311   -3.723724    0.603266
H       1.314156   -3.818931   -1.063325
H      -1.983083   -2.729878    1.920496
H      -3.288065   -1.747078    1.250456
H      -3.028860   -3.395990    0.659727
