21

C      -0.124070    1.484962    0.010439
C       0.038864   -0.023495   -0.004431
C       0.848967   -0.580302   -1.207976
C       1.407461   -1.947892   -0.718226
C       0.858282   -2.092695    0.721339
C       0.780005   -0.637238    1.198584
O      -0.464941   -2.641257    0.752361
C      -1.346056   -1.964756   -0.110093
O      -1.299356   -0.565446    0.015065
H       0.851343    1.976277    0.075108
H      -0.628209    1.827260   -0.898474
H      -0.727986    1.792736    0.868631
H       0.215756   -0.663995   -2.095299
H       1.657303    0.114717   -1.452159
H       1.107051   -2.791288   -1.345097
H       2.500828   -1.940463   -0.686829
H       1.460383   -2.752422    1.348513
H       1.779912   -0.202658    1.312445
H       0.223681   -0.527134    2.131477
H      -1.149006   -2.257820   -1.155837
H      -2.357834   -2.273939    0.163767
