22

C       0.125685    1.479951    0.157536
C      -0.002917   -0.057269    0.036718
C       0.732151   -0.753653    1.206749
C      -1.500262   -0.418810    0.132495
C       0.608980   -0.515696   -1.292785
C      -0.244256   -1.234548   -2.328402
O       0.452517   -1.591048   -3.490524
N       1.816407   -0.371625   -1.684343
O       2.676020    0.280530   -0.793671
H       1.166125    1.800764    0.116805
H      -0.421459    1.980921   -0.647972
H      -0.305493    1.809031    1.109077
H       0.300775   -0.423116    2.157691
H       0.616038   -1.840931    1.147415
H       1.796731   -0.521770    1.207553
H      -2.095622    0.061345   -0.649474
H      -1.672324   -1.497885    0.082878
H      -1.887760   -0.071813    1.095262
H      -0.676678   -2.132719   -1.859538
H      -1.097326   -0.586983   -2.586111
H       1.359904   -1.280253   -3.354101
H       3.509056    0.279829   -1.276993
