21

C      -0.324373    1.391897   -0.005665
C       0.036467   -0.090416    0.045706
C       1.178737   -0.514328   -0.927922
C       2.165072   -0.482853    0.254155
C       0.959053   -0.490653    1.238695
O       3.056115   -1.571742    0.272455
C       3.939021   -1.538028    1.378363
C       4.835922   -2.685620    1.335824
C       5.586648   -3.622703    1.325244
H       0.565103    2.027397    0.075022
H      -0.824456    1.642861   -0.947529
H      -0.998598    1.662041    0.814518
H      -0.874347   -0.688880   -0.039802
H       1.060512   -1.540373   -1.285026
H       1.389437    0.138653   -1.778600
H       2.727043    0.462389    0.309159
H       0.989003    0.187369    2.096131
H       0.760949   -1.507606    1.589191
H       4.529381   -0.605229    1.370503
H       3.376661   -1.546179    2.326722
H       6.247834   -4.453453    1.309171
