17

C      -0.040609    1.464557   -0.204373
C       0.025321   -0.025214   -0.003614
O       1.339098   -0.629685   -0.034015
C       0.619455   -0.652748    1.176751
C       1.069774   -0.025249    2.509084
C       0.215854   -1.119404    3.177285
O      -0.401367   -1.195840    4.201014
C       0.161805   -1.951540    1.884352
O      -1.017816   -2.610370    1.537553
H       0.737768    1.974443    0.368911
H       0.095387    1.712906   -1.261797
H      -1.017705    1.850027    0.106657
H      -0.726417   -0.611434   -0.533334
H       2.141789   -0.147518    2.696027
H       0.781035    1.004801    2.726833
H       0.997498   -2.667236    1.857505
H      -1.709790   -2.310836    2.139136
