17

O      -0.380195   -0.109690   -0.055934
C      -0.096771    1.064821   -0.027250
C      -1.152906    2.145944   -0.138947
C      -1.541332    2.657097    1.262526
C      -0.556153    3.596185    1.947448
O      -0.980517    4.465557    2.685207
C       0.914376    3.486603    1.767367
C       1.675989    2.657583    1.040209
C       1.349444    1.510316    0.128177
H      -0.797734    2.978832   -0.756569
H      -2.028963    1.701006   -0.615757
H      -2.490468    3.196436    1.221238
H      -1.702888    1.797944    1.927809
H       1.422990    4.246602    2.355061
H       2.750171    2.826302    1.110012
H       1.937862    0.631321    0.415595
H       1.706123    1.779750   -0.880168
