12

O      -0.075456    1.471530   -0.191677
C      -0.001117    0.116433    0.152613
C      -1.324226   -0.571346   -0.001870
N      -2.322191   -0.173900   -0.730408
C      -3.228322   -1.191199   -0.536874
N      -2.823124   -2.155993    0.255034
O      -1.545797   -1.739556    0.614656
C      -4.519674   -1.217048   -1.142779
N      -5.561545   -1.226117   -1.641409
H      -0.627528    1.552773   -0.978904
H       0.738441   -0.438033   -0.450555
H       0.323262    0.045677    1.195943
