24

C      -0.225213    1.497971   -0.037927
C      -0.026013   -0.019987   -0.008973
C      -1.326952   -0.743535   -0.341381
C       1.233874   -0.465693   -0.821444
C       2.044286   -0.519107    0.497782
C       0.711082   -0.494092    1.286402
N       2.870164   -1.697060    0.686748
C       4.264800   -1.582531    0.267462
C       3.906564   -1.601996    1.711817
H       0.699987    2.034180    0.198772
H      -0.557305    1.830783   -1.028284
H      -0.983636    1.807623    0.690611
H      -1.689350   -0.467472   -1.339079
H      -1.192929   -1.830010   -0.322782
H      -2.115231   -0.490612    0.378055
H       1.118143   -1.471064   -1.235599
H       1.587548    0.207372   -1.607601
H       2.619763    0.409599    0.653025
H       0.652228    0.156565    2.163515
H       0.421588   -1.508902    1.572834
H       4.689460   -2.461276   -0.209295
H       4.596839   -0.632707   -0.149324
H       3.999414   -0.665168    2.259412
H       4.064797   -2.495217    2.309265
