15

O      -0.293208    0.364036   -0.726104
C       0.081981    1.093121    0.155482
C       1.337619    1.916204    0.083939
C       2.325364    1.555925   -1.014000
C       1.528097    2.807826   -1.199546
C       0.499011    2.919851   -2.186025
C      -0.352490    3.053712   -3.023787
C       1.803752    2.460794    1.324788
C       2.167629    2.903865    2.382270
H      -0.484918    1.215781    1.100622
H       3.377889    1.651435   -0.778195
H       2.033359    0.699259   -1.610261
H       2.040847    3.735342   -0.964104
H      -1.107830    3.153663   -3.763455
H       2.496599    3.295186    3.313163
