16

O      -0.393026    0.277110    0.524221
C      -0.152364    1.359788    0.097781
O      -1.005828    2.210946   -0.562506
C       0.038609    3.250724   -0.672668
C      -0.125635    4.436819    0.254059
C      -0.652052    4.165733    1.618228
N       0.789378    4.310987    1.417442
C       1.532406    3.037748    1.291641
C       1.048023    2.309551    0.018980
H       0.181094    3.516189   -1.719277
H      -0.215216    5.423638   -0.188369
H      -1.116605    4.970335    2.180750
H      -1.066450    3.181148    1.818971
H       2.593979    3.282878    1.196650
H       1.411013    2.430803    2.193907
H       1.860325    1.907376   -0.587548
