17

O      -0.124991    0.021954   -0.052039
C      -0.071174    1.214350   -0.054166
O       1.071276    1.892482    0.170602
C       1.034884    3.313081    0.147514
C       1.800349    3.990181    1.343273
C       3.110603    3.623121    0.565088
C       2.208601    3.968001   -0.669624
C       1.876937    5.433375   -0.388335
C       1.610751    5.447837    0.924051
H      -0.936175    1.880711   -0.237260
H       0.021438    3.670321   -0.061978
H       1.621751    3.698889    2.377053
H       3.980386    4.260431    0.734473
H       3.368880    2.564421    0.629138
H       2.445602    3.654143   -1.684895
H       1.835599    6.231512   -1.115509
H       1.292816    6.261005    1.560595
