20

C       0.117151    1.564900   -0.144676
C       0.042666    0.052096   -0.020051
O       0.744877   -0.529056   -1.124921
C       1.330225   -1.764747   -0.743566
C       1.522049   -1.681230    0.755884
N       2.166518   -0.421971    1.174240
C       0.693822   -0.546585    1.224479
C      -0.035165   -0.558827    2.535194
O      -0.108958    0.773273    3.029028
H       1.159792    1.884647   -0.081447
H      -0.294533    1.885525   -1.105639
H      -0.447811    2.035277    0.663767
H      -1.012372   -0.276417   -0.033610
H       0.674264   -2.618778   -0.982655
H       2.266025   -1.876680   -1.301184
H       1.657002   -2.585243    1.341745
H       2.539929   -0.526322    2.115724
H      -1.041756   -0.981694    2.387531
H       0.497737   -1.215078    3.243167
H      -0.675388    0.775036    3.806503
