15

O      -0.072916    0.160131   -0.232027
C       0.226457    1.298102   -0.467933
C       1.574706    1.896400   -0.078573
O       1.581097    3.297582   -0.306364
C       2.366173    3.770433   -1.291779
N       2.354072    5.001435   -1.557023
C       3.208853    5.523672   -2.604375
C       4.056456    4.547385   -3.313916
N       4.697780    3.739622   -3.835794
H      -0.451729    2.009375   -0.989027
H       1.753511    1.716346    0.986207
H       2.366177    1.386738   -0.644127
H       2.980800    3.012253   -1.794499
H       2.585056    6.037403   -3.345987
H       3.860893    6.294558   -2.175797
