16

O      -0.003321    0.022912    0.150146
C       0.002247    1.221474    0.021486
C      -1.197881    2.107843   -0.104489
C      -0.848858    3.265848   -0.964079
C       0.668409    3.452640   -0.723750
C       0.306924    3.918187    0.705858
C       1.244559    2.880962    1.333261
C       1.212546    2.138580   -0.050060
N      -1.142381    3.498691    0.482118
H      -2.190517    1.675718   -0.085968
H      -1.469340    3.656963   -1.762428
H       1.301222    3.999490   -1.417106
H       0.320241    4.956230    1.038306
H       2.227812    3.315168    1.536431
H       0.905344    2.327268    2.212929
H       2.115827    1.650836   -0.410538
