19

O      -0.128879    1.521045   -0.015129
C       0.057137    0.109641    0.112421
C      -1.333581   -0.501037   -0.001451
O      -2.168428    0.092974    0.960483
C      -2.034012   -0.702399   -1.387975
C      -1.013649   -1.486037   -2.235678
C      -0.629082   -2.548671   -1.148501
C      -1.560735   -2.032201   -0.032728
O      -2.794015   -1.788999   -0.773418
H       0.665805    1.966269    0.291113
H       0.745114   -0.261425   -0.655339
H       0.469017   -0.146375    1.099547
H      -1.961373    1.036123    0.928810
H      -2.648776    0.069385   -1.849914
H      -1.496718   -1.935729   -3.105165
H      -0.171502   -0.882354   -2.584051
H      -0.905356   -3.563544   -1.439627
H       0.430719   -2.544483   -0.878684
H      -1.691203   -2.610990    0.881600
