17

C      -0.970522    0.093872    0.863394
O       0.274529    0.025130    1.539980
C       1.351569   -0.325510    0.693005
C       1.534322   -1.840713    0.479360
O       2.173522   -2.272986   -0.444938
N       0.918379   -2.581094    1.477773
C       0.992244   -3.973732    1.675905
N       0.180893   -4.381610    2.722754
O       1.706176   -4.718495    1.055058
H      -1.254509   -0.873598    0.424819
H      -1.720472    0.386312    1.601624
H      -0.943731    0.845471    0.062685
H       1.271348    0.141192   -0.296038
H       2.265662    0.048152    1.168203
H       0.443730   -2.015236    2.168859
H      -0.665438   -3.869451    2.917771
H       0.094050   -5.384363    2.787745
