20

C       0.232988    0.962203    1.463394
O      -0.394883    0.035674    0.601343
C       0.497040   -0.690400   -0.228428
C       0.729527   -2.096890    0.277593
N      -0.425449   -2.866214    0.818661
C       0.712374   -2.523729    1.704705
C       1.724344   -3.652183    1.879162
C       2.256401   -3.851536    0.473066
C       1.727607   -2.987428   -0.395328
H       0.737909    1.759507    0.897865
H      -0.551275    1.410807    2.078303
H       0.971232    0.485314    2.123441
H       0.038613   -0.738238   -1.226032
H       1.455348   -0.162074   -0.335827
H      -1.159155   -2.183381    1.014763
H       0.531694   -1.825489    2.513942
H       2.522343   -3.376923    2.581620
H       1.252846   -4.561724    2.270782
H       2.959298   -4.638715    0.223624
H       1.944151   -2.940877   -1.456611
