23

C       0.317610    2.055267    0.209309
C       0.301192    0.541859    0.167829
C       0.610754   -0.356693   -1.033662
C       1.395490    0.139779   -2.240888
C       0.662485    1.088495   -3.193995
C       2.667352    0.756032   -1.605353
O       2.745451    0.318911   -0.248927
C       1.544752   -0.318222    0.143753
C       1.796368   -1.432527    1.121268
H      -0.548201    2.483055   -0.307893
H       0.280401    2.398650    1.249179
H       1.221276    2.477507   -0.231267
H      -0.495532    0.116633    0.776275
H      -0.048760   -1.204219   -1.191599
H       1.686946   -0.752762   -2.809404
H       0.336153    1.997112   -2.679589
H       1.309412    1.387128   -4.026573
H      -0.223688    0.608209   -3.620784
H       3.585204    0.446104   -2.118757
H       2.625699    1.853037   -1.643946
H       2.282120   -1.050844    2.025761
H       0.856336   -1.907417    1.415773
H       2.450447   -2.194180    0.683909
