17

O      -0.038870    1.360009   -0.159651
C      -0.030209   -0.041693   -0.034549
C       0.328445   -0.605778    1.341287
O      -0.652902    0.004675    2.179589
C      -1.889323   -0.098943    1.434087
C      -1.442103   -0.681260    0.066631
O      -2.326748   -0.511761   -0.995307
C      -1.033437   -2.135582    0.313999
O       0.098304   -1.991298    1.208879
H      -0.174164    1.719942    0.726460
H       0.563340   -0.457988   -0.851210
H       1.312141   -0.437121    1.775516
H      -2.594151   -0.750738    1.960102
H      -2.339274    0.894211    1.322997
H      -2.262757    0.412177   -1.269201
H      -1.809727   -2.732737    0.802840
H      -0.726332   -2.633030   -0.613509
