21

C       0.655401    1.326199   -0.514006
C      -0.020111    0.116551    0.136691
O      -0.157356   -0.957911   -0.800105
C       0.980649   -1.804563   -0.718743
C       1.700299   -1.507145    0.616369
O       2.969176   -0.863335    0.441520
C       0.741136   -0.525587    1.318971
C       1.435636    0.419894    2.307414
O       2.277488   -0.281014    3.209574
H       1.701403    1.117123   -0.754337
H       0.125849    1.578769   -1.436884
H       0.623649    2.199176    0.145950
H      -1.039986    0.389864    0.428828
H       0.632607   -2.841814   -0.783548
H       1.673535   -1.623067   -1.554962
H       1.838305   -2.417583    1.210706
H       3.550452   -1.466367   -0.032224
H       0.023946   -1.139451    1.874986
H       2.001093    1.187439    1.766491
H       0.684171    0.933560    2.916659
H       3.027316   -0.573894    2.677870
