19

C      -0.006795    1.507021    0.010424
O       1.165491    0.673325   -0.006101
C      -0.110505    0.048391    0.003150
C      -0.469949   -0.947659    1.105604
C      -2.002826   -1.074541    1.312417
C      -2.121912   -1.910476    0.012184
C      -2.028866   -1.059762   -1.280565
C      -0.492131   -0.935068   -1.103145
C      -0.556221   -2.065600   -0.004424
H      -0.169607    2.060862    0.934686
H      -0.188072    2.071344   -0.904008
H       0.186156   -0.969552    1.975862
H      -2.216708   -1.694344    2.188181
H      -2.587755   -0.151443    1.386597
H      -2.826865   -2.741932    0.014524
H      -2.260362   -1.669568   -2.158866
H      -2.615062   -0.135946   -1.332459
H       0.146363   -0.946963   -1.986596
H       0.005865   -2.995329   -0.015370
