15

C       0.017052    1.515059   -0.095644
N      -0.004594    0.059249    0.066074
C      -1.156771   -0.582421    0.818938
C      -0.211113   -1.807653    1.016023
C       0.082878   -2.602028   -0.166433
N       0.306674   -3.297921   -1.061349
C       0.692954   -0.560492    1.264160
C      -0.490901    0.027919    2.088049
O      -0.713073    0.787476    2.973687
H       1.009700    1.801258   -0.453472
H      -0.710441    1.780866   -0.867268
H      -0.209280    2.085160    0.817098
H      -2.177779   -0.574384    0.444645
H      -0.412320   -2.438926    1.883067
H       1.771993   -0.527561    1.395339
