16

C      -0.027763    1.445986   -0.107782
C       0.007731   -0.043925    0.016094
N      -0.010230   -0.816688   -1.060574
N       0.032489   -2.091303   -0.584051
C       0.077137   -2.129578    0.778067
C       0.062859   -0.828184    1.204650
C       0.028636   -3.224511   -1.448254
N      -0.020269   -2.875802   -2.751760
O       0.067011   -4.346951   -0.996483
H       0.864145    1.901484    0.335951
H      -0.077298    1.735159   -1.159374
H      -0.897246    1.865579    0.409564
H       0.113856   -3.075688    1.291267
H       0.088007   -0.476652    2.223561
H      -0.050086   -1.902477   -3.008052
H      -0.027838   -3.607681   -3.438524
