13

O       0.037699   -0.035062   -0.215790
C      -0.051452    1.117724    0.061027
C      -1.294662    1.971729    0.067784
C      -1.260923    2.982519    1.221377
N      -0.000988    3.710842    1.274887
C       1.022317    3.101200    0.860344
O       1.115743    1.810971    0.391158
C       2.319150    3.735661    0.872780
N       3.356361    4.243812    0.879855
H      -1.323074    2.510987   -0.887914
H      -2.164642    1.314760    0.105694
H      -2.074888    3.704848    1.123727
H      -1.401906    2.479433    2.187896
