15

N      -0.025576   -1.212131   -0.047144
C       0.005781   -0.058124    0.003660
C      -0.026833    1.393740   -0.000931
C       0.051680    2.127783    1.375050
N       1.490821    1.634570    1.458434
C       1.337551    2.152394    0.033758
C       0.552214    3.354157    0.590163
C       0.053523    4.644500    0.135768
O       1.100454    4.514322    1.137042
H      -0.769802    1.770477   -0.706285
H      -0.644546    2.053310    2.208649
H       2.045428    2.301493    2.002359
H       2.142147    2.106646   -0.698154
H       0.382387    5.055027   -0.816919
H      -0.891751    5.030628    0.512142
