16

O      -0.084578    1.445768    0.021430
C       0.024867    0.033682   -0.006291
C       0.755683   -0.509307    1.227091
C       0.719196   -2.024158    1.323759
O       1.573083   -2.689272    1.861521
N      -0.400048   -2.624924    0.752986
C      -1.457607   -2.029709    0.065352
O      -2.352900   -2.703444   -0.386719
C      -1.396952   -0.518223   -0.045036
H       0.800080    1.821371   -0.036595
H       0.559697   -0.292900   -0.912782
H       1.805832   -0.207654    1.255166
H       0.273950   -0.098777    2.124096
H      -0.442999   -3.634596    0.830238
H      -1.958033   -0.092695    0.797417
H      -1.919168   -0.227258   -0.957697
