16

N      -0.086540    1.318190   -0.005028
C      -0.048644    0.057827    0.035489
O       1.076550   -0.737563   -0.025332
C       0.719527   -2.134866   -0.018010
C      -0.783226   -2.110026    0.001790
N      -1.714745   -2.962484   -0.124701
C      -2.971502   -2.174123   -0.034576
C      -2.570315   -0.651964   -0.004952
N      -1.129928   -0.784708    0.157392
H       0.851286    1.701520   -0.100959
H       1.119988   -2.621049   -0.911908
H       1.144069   -2.614320    0.869870
H      -3.619034   -2.410675   -0.883194
H      -3.510971   -2.460306    0.874823
H      -2.807233   -0.125468   -0.935479
H      -3.018138   -0.102336    0.825603
