15

O       0.037037   -0.023793   -0.043363
C      -0.005719    1.182085    0.004115
C      -1.219799    2.043329    0.094692
C      -0.878693    3.335555    0.019486
C       0.610212    3.530304   -0.072050
C       1.358939    3.027126    1.162640
C       1.184739    2.122616   -0.036225
C       1.152037    4.588287   -0.869253
C       1.591823    5.487719   -1.535336
H      -2.214214    1.635441    0.216858
H      -1.552526    4.183498    0.051457
H       2.353043    3.426961    1.329275
H       0.773534    2.838132    2.055672
H       2.056925    1.844079   -0.612234
H       1.983336    6.276707   -2.128403
