19

O      -0.067001   -0.047270   -0.021005
C       0.001959    1.154128   -0.076688
C       1.303920    1.926013   -0.143425
C       1.316112    2.976917   -1.245333
O       0.261680    3.878905   -1.002752
C       0.208829    4.905857   -1.988476
C       1.545270    5.647367   -2.052701
C       2.665565    4.619213   -2.224024
O       2.569708    3.610757   -1.222974
H      -0.909916    1.787428   -0.071070
H       1.437019    2.458529    0.807379
H       2.134643    1.230660   -0.276756
H       1.167244    2.515642   -2.242709
H      -0.029220    4.465207   -2.971212
H      -0.614706    5.565189   -1.704077
H       1.548910    6.363353   -2.881865
H       1.699116    6.200414   -1.120450
H       2.606935    4.157054   -3.224035
H       3.655672    5.068388   -2.115989
