11

O      -0.036904    1.296585   -0.246429
C       0.023257   -0.016343   -0.021924
N       1.154090   -0.602969    0.081856
O       1.134763   -1.982639    0.317377
C      -0.026971   -2.701124    0.436317
N      -0.050468   -3.933661    0.647154
O      -1.210621   -2.029709    0.318050
C      -1.300241   -0.687968    0.088586
O      -2.357296   -0.150466   -0.006618
H       0.870146    1.633870   -0.301184
H       0.892150   -4.310935    0.714760
