13

O      -0.003715    1.280562    0.008966
C       1.247900    1.734382   -0.000491
C       2.117003    0.669025   -0.014574
N       3.477855    0.604824   -0.027879
C       3.961955   -0.610121   -0.039114
C       3.176320   -1.815898   -0.038217
C       1.812928   -1.768567   -0.024978
C       1.237277   -0.467509   -0.012397
N      -0.038223   -0.112057    0.001681
H       1.375182    2.804923    0.004137
H       5.046234   -0.700751   -0.049941
H       3.697221   -2.767087   -0.048370
H       1.193113   -2.657495   -0.023929
