17

O       0.174717    1.363139    0.162265
C       0.068507   -0.023847   -0.140421
C      -1.346692   -0.514798   -0.115836
C      -2.029045   -0.945114    1.161165
C      -1.897750   -1.937062    0.038220
C      -2.962437   -1.663420   -1.030814
C      -2.413044   -0.205907   -1.179543
H      -0.277613    1.503344    1.000982
H       0.497119   -0.132819   -1.143446
H       0.682350   -0.632948    0.544417
H      -1.369687   -1.116155    2.007602
H      -3.005629   -0.546918    1.429942
H      -1.352570   -2.865068    0.166820
H      -2.822052   -2.252754   -1.939477
H      -4.002312   -1.770561   -0.704721
H      -3.102424    0.611687   -0.947046
H      -1.981014   -0.023060   -2.166507
