19

C       0.040052    1.523767   -0.299398
C      -0.003540    0.046249    0.112718
C      -1.388896   -0.502380    0.202956
C      -1.976521   -1.858669    0.086370
C      -2.879100   -1.650820    1.299079
C      -2.698046   -0.133537    1.029564
C      -3.357413    0.030016   -0.347109
N      -2.274938   -0.806851   -0.960968
H       1.071489    1.883753   -0.358711
H      -0.426062    1.664212   -1.279314
H      -0.492192    2.153004    0.421946
H       0.549569   -0.558915   -0.616051
H       0.502640   -0.088096    1.077901
H      -1.526265   -2.771868   -0.281442
H      -3.900126   -2.048521    1.282528
H      -2.373312   -1.968991    2.214584
H      -2.806651    0.596646    1.829934
H      -4.378098   -0.349824   -0.479669
H      -3.283763    1.041038   -0.755442
