16

O      -0.025343    0.010336    0.337920
C      -0.062166    1.184914    0.059622
C      -1.360811    1.934473   -0.224683
C      -1.157474    2.998844   -1.328330
C      -0.108765    3.970033   -0.818586
O      -0.304014    5.135787   -0.583095
N       1.141857    3.360996   -0.575708
C       1.568100    3.131308    0.787661
C       1.207765    1.977215   -0.117493
H      -2.123688    1.198743   -0.488723
H      -1.695896    2.425056    0.699267
H      -0.813581    2.517635   -2.250987
H      -2.077224    3.545221   -1.540199
H       2.616771    3.308458    1.006521
H       0.878311    3.406573    1.581362
H       2.028095    1.387031   -0.518256
