17

O      -1.006244    1.297566   -0.153407
C       0.133242    1.093387    0.194384
C       1.261835    2.045459    0.066094
C       1.527446    2.853986   -1.203073
C       0.423772    2.952329   -2.265768
C      -0.710158    3.802453   -1.652619
C      -0.286123    4.142159   -0.219206
O      -0.888769    4.845258    0.549400
C       1.090356    3.568466    0.037915
H       0.419131    0.115675    0.641182
H       2.161452    1.717751    0.579256
H       2.560117    2.875401   -1.531802
H       0.841842    3.434152   -3.153561
H       0.070393    1.965168   -2.573735
H      -0.844267    4.749418   -2.186586
H      -1.675543    3.297464   -1.633391
H       1.746417    4.134790    0.687856
