20

C      -0.055485    1.538544    0.037172
C       0.004907    0.029064    0.040285
O      -1.149019   -0.597967   -0.455805
C       1.325429   -0.687020   -0.197952
C       0.666748   -0.713652    1.172060
O       1.221372    0.103758    2.173282
C       0.061509   -1.991417    1.682447
C       0.680746   -2.706897    2.825601
N      -0.604101   -2.002432    2.992093
H       0.816140    1.970539    0.530636
H      -0.096459    1.917499   -0.991407
H      -0.954163    1.878424    0.560876
H      -1.197514   -0.417378   -1.401120
H       1.301076   -1.600121   -0.783282
H       2.220885   -0.083599   -0.308592
H       2.113490   -0.212596    2.352360
H      -0.453845   -2.565736    0.920239
H       0.627236   -3.790476    2.882747
H       1.564955   -2.276194    3.289295
H      -0.419716   -1.108446    3.444618
