14

N      -0.883073    0.621135    0.116902
C       0.157329   -0.379298   -0.149588
C       1.087644    0.000594   -1.233100
N       1.746286    0.356793   -2.112609
C       0.896057   -0.681829    1.128141
N       2.088184   -1.226691    1.264554
C       2.221170   -1.313981    2.618243
N       1.193029   -0.859019    3.316683
N       0.349277   -0.457556    2.338718
H      -0.459179    1.540421    0.211365
H      -1.520919    0.673797   -0.670886
H      -0.351679   -1.297188   -0.472449
H       3.098995   -1.719237    3.098202
H      -0.548869   -0.049568    2.543791
