19

C      -0.095108    1.335772    0.176660
C       1.255655    0.788737   -0.050435
C       1.801324   -0.003307    1.150602
C       2.181655    0.543758    2.543544
C       1.279071   -0.106303    3.631542
C       0.691959   -1.475811    3.216826
N      -0.145142   -1.358013    2.002014
C       0.456657   -0.682149    1.131499
N       0.014322   -0.118772   -0.130901
H      -0.417913    1.627042    1.173200
H      -0.551713    1.900417   -0.630078
H       1.821084    1.012848   -0.947746
H       2.565351   -0.700481    0.790364
H       3.233571    0.325071    2.749946
H       2.076645    1.632511    2.574023
H       1.836698   -0.213740    4.567315
H       0.429964    0.553280    3.845146
H       1.497075   -2.206681    3.052033
H       0.068051   -1.870510    4.022946
