21

C       0.339636    1.243862    0.597472
C      -0.087132   -0.105368    0.011146
C      -1.616758   -0.172333   -0.180662
O      -2.344583   -0.057497    1.030715
C       0.601380   -0.488903   -1.298823
C       0.574942    0.426795   -2.519691
C       1.866485    0.202222   -1.816279
C       0.562238   -1.946937   -1.621409
O       0.942465   -2.435240   -2.659161
H       1.401373    1.255569    0.856289
H       0.148932    2.072284   -0.095070
H      -0.214714    1.443080    1.519574
H       0.164299   -0.877783    0.752092
H      -1.929441    0.588724   -0.912459
H      -1.891940   -1.146778   -0.599557
H      -2.352587    0.867595    1.291355
H       0.424414   -0.064595   -3.474062
H       0.087312    1.388465   -2.405245
H       2.279956    1.004640   -1.218213
H       2.592052   -0.447685   -2.291536
H       0.162766   -2.591291   -0.805133
