21

C       0.089944    1.448806   -0.239933
C      -0.100072   -0.067333   -0.180304
C      -1.564850   -0.455742    0.015037
O      -2.352928    0.244822    0.625857
N      -1.916199   -1.661057   -0.528128
C      -3.233640   -2.248792   -0.352163
C      -3.159393   -3.657658    0.185972
C      -4.222901   -4.637426   -0.132271
N      -2.878787   -4.789792   -0.720964
H       1.152289    1.707463   -0.253114
H      -0.374912    1.869379   -1.136746
H      -0.380202    1.917606    0.626722
H       0.307516   -0.552554   -1.075074
H       0.454777   -0.479666    0.673100
H      -1.210948   -2.205292   -0.998270
H      -3.767677   -1.588655    0.336762
H      -3.788067   -2.250530   -1.303114
H      -2.648981   -3.744645    1.143042
H      -4.496259   -5.398079    0.592706
H      -5.037740   -4.312860   -0.774925
H      -2.904230   -4.468303   -1.687322
