17

O      -0.384432    0.021598    0.089209
C      -0.092190    1.185966    0.086643
N       1.185859    1.722474    0.078134
C       2.413952    1.066190    0.075498
N       2.573104   -0.195335    0.163210
C       3.985320   -0.475074    0.051240
C       4.617790   -0.166199   -1.281198
C       4.743363    0.830112   -0.151011
C       3.680828    1.911655   -0.064252
H      -0.841288    2.005107    0.087496
H       1.229108    2.730127    0.066352
H       4.351439   -1.301352    0.648439
H       5.515245   -0.712201   -1.552494
H       3.952017    0.053226   -2.110831
H       5.716727    1.006840    0.288430
H       3.635029    2.560917   -0.947212
H       3.816461    2.562391    0.809538
