15

O      -0.687531    0.922102   -1.074974
C       0.097440    0.826174   -0.169898
C       1.343123    1.680941   -0.031896
C       1.300899    2.687417    1.173315
C       2.563834    1.981354    1.743665
N       2.470062    1.027556    0.637043
C       3.360589    0.090666    0.227041
O       4.360676   -0.210880    0.841445
H      -0.045464    0.105196    0.668135
H       1.577440    2.137504   -0.998947
H       1.423167    3.730566    0.885993
H       0.411574    2.588447    1.798032
H       3.484393    2.573110    1.724803
H       2.456595    1.527394    2.732770
H       3.059717   -0.377116   -0.733217
