16

N      -0.030000    1.363088    0.312011
C       0.000231    0.011087    0.008461
N      -1.021828   -0.564506   -0.590127
O      -0.678606   -1.935682   -0.652099
C       0.533862   -2.102108   -0.107441
C       1.032058   -0.914189    0.340773
N       1.067385   -3.374825   -0.164738
C       1.551908   -4.016965    1.054431
C       0.314180   -4.502675    0.379392
H       0.861554    1.826560    0.208487
H      -0.761352    1.853307   -0.186639
H       1.973111   -0.729497    0.829629
H       2.484759   -4.561597    0.948665
H       1.432414   -3.470684    1.986543
H      -0.638645   -4.284780    0.852682
H       0.338212   -5.403241   -0.225357
