15

C       0.113603    1.517724    0.015473
C      -0.066831    0.043986    0.041310
C      -1.118298   -0.817879   -0.025024
N      -2.491137   -0.966691   -0.139076
C      -2.724230   -2.332971   -0.120748
N      -1.662419   -3.079258   -0.008355
C      -0.618728   -2.159378    0.055676
C       0.736614   -2.053839    0.169419
O       1.066555   -0.728138    0.160594
H       0.738387    1.838534   -0.826619
H      -0.857867    2.009426   -0.082426
H       0.586119    1.888068    0.933065
H      -3.190884   -0.251084   -0.219340
H      -3.735168   -2.711953   -0.197156
H       1.555934   -2.744910    0.259379
