15

C      -0.081263    1.407087    0.166020
N      -0.071167   -0.003596   -0.183391
C      -1.203516   -0.759228   -0.095157
N      -1.270729   -2.058920   -0.021759
C      -2.636990   -2.318152   -0.027417
N      -3.076989   -3.637489   -0.029108
C      -3.328892   -1.153863   -0.090306
O      -2.382301   -0.121074   -0.133664
H       0.884409    1.840111   -0.103041
H      -0.857350    1.918927   -0.406584
H      -0.266074    1.591239    1.234130
H       0.757043   -0.526542    0.054900
H      -2.390845   -4.253294    0.386394
H      -3.985008   -3.768927    0.393980
H      -4.360891   -0.858909   -0.114680
