17

C      -0.434460    0.944934   -0.138392
O       0.599649   -0.005872    0.076199
C       0.995290   -0.651821   -1.072368
C       1.455964   -2.067559   -1.000515
C       0.586388   -2.854666   -0.012605
N      -0.678680   -2.378110   -0.673918
C       0.128241   -1.719054   -1.724032
C      -0.223694   -1.731564   -3.102511
N      -0.518674   -1.744516   -4.222802
H      -0.121894    1.721594   -0.850659
H      -1.343181    0.456752   -0.509572
H      -0.639702    1.408691    0.828179
H       1.528697   -0.036718   -1.800676
H       2.404589   -2.392993   -1.407611
H       0.732458   -3.933163   -0.110638
H       0.661731   -2.560959    1.036829
H      -1.188428   -3.163024   -1.066472
