22

C      -0.920830    1.085183   -0.701988
C      -0.201683   -0.111697   -0.081910
C      -1.174514   -1.148568    0.477337
O       0.587823   -0.741544   -1.105996
C       1.998874   -0.814202   -0.933940
C       2.661130    0.578464   -0.894683
C       2.401911   -1.664860    0.288156
C       2.469531   -1.511963   -2.153942
N       2.877312   -2.052221   -3.089558
H      -0.205525    1.822149   -1.076593
H      -1.540715    0.755623   -1.541339
H      -1.566738    1.573660    0.034638
H       0.446496    0.242735    0.728668
H      -1.802100   -1.544860   -0.326693
H      -0.637984   -1.984868    0.933225
H      -1.824929   -0.700702    1.235500
H       2.357084    1.118699    0.005720
H       3.749936    0.482813   -0.881869
H       2.370146    1.157873   -1.773335
H       1.930341   -2.648260    0.233659
H       3.486530   -1.796785    0.319934
H       2.092592   -1.171533    1.213339
