14

O      -0.008188    1.422596    0.009808
C      -0.009006    0.022373    0.003446
C      -1.450381   -0.482677    0.012813
O      -2.401310    0.263804    0.023280
C      -1.631121   -1.948512    0.007635
C      -0.730921   -2.975426   -0.003865
O      -1.354996   -4.151905   -0.004204
N      -2.742022   -3.933115    0.007546
C      -2.883749   -2.636965    0.013980
H       0.905601    1.721876    0.002824
H       0.486161   -0.401254   -0.888214
H       0.500533   -0.409293    0.883076
H       0.347757   -3.018386   -0.012296
H      -3.870762   -2.198608    0.023450
