17

C      -0.661498    0.629089    0.103051
O       0.704442    0.234004    0.123785
C       1.090641   -0.553447    1.209442
C       0.787628   -2.055752    1.047479
O      -0.617902   -2.247650    1.182888
C      -1.054931   -3.528054    1.322563
N      -2.287129   -3.742072    1.451484
C       1.275853   -2.571070   -0.244938
N       1.665364   -3.008694   -1.240134
H      -0.943975    1.117081    1.047027
H      -0.759343    1.348416   -0.712551
H      -1.334680   -0.215861   -0.070622
H       2.176519   -0.448466    1.309187
H       0.617505   -0.229496    2.148803
H       1.317392   -2.593500    1.847691
H      -0.248013   -4.271399    1.309699
H      -2.464438   -4.739155    1.553108
