18

C       0.406649    1.535544   -0.120082
C       0.114833    0.047156    0.109449
C       0.590957   -0.397528    1.496050
N      -1.302219   -0.375020   -0.013051
C      -2.388844    0.568059   -0.159586
C      -2.014178   -0.346736   -1.290064
C      -1.417948    0.205255   -2.483819
N      -0.931915    0.604292   -3.455337
H       1.485762    1.702579   -0.052081
H       0.086077    1.883071   -1.104998
H      -0.070194    2.155998    0.646645
H       0.657627   -0.532864   -0.646330
H       0.416184   -1.466466    1.638496
H       1.659179   -0.194762    1.621044
H       0.049580    0.142182    2.280779
H      -3.290005    0.355588    0.410027
H      -2.169091    1.623513   -0.297394
H      -2.618852   -1.228549   -1.488704
