16

N       0.039266   -1.145297    0.125628
C       0.046775    0.009490    0.062582
C       0.033554    1.434046   -0.068114
C      -0.691932    2.216562   -1.186114
C       0.484317    3.219104   -1.158480
C       1.079176    3.929277   -2.305802
N       0.448185    4.676796   -1.193707
C       1.177454    2.431701   -0.062693
N       0.313942    2.271944    1.094526
H      -0.758808    1.663535   -2.125428
H      -1.684507    2.590236   -0.913113
H       2.157012    4.047713   -2.376477
H       0.564540    3.874174   -3.261706
H      -0.475305    5.000481   -1.472573
H       2.239790    2.256612    0.056348
H      -0.358960    3.030478    1.196162
