16

N      -0.131586    1.255753   -0.251680
C      -0.053285   -0.116779   -0.053878
O       0.956286   -0.763923   -0.254088
N      -1.230914   -0.686094    0.395016
C      -2.626211   -0.296063    0.065950
C      -2.967734   -1.782454   -0.095686
C      -2.051236   -2.417831   -1.114772
C      -1.520238   -2.106560    0.252520
H       0.775777    1.690032   -0.328825
H      -0.792349    1.772733    0.308702
H      -3.130863    0.185636    0.910638
H      -2.726114    0.331844   -0.827030
H      -3.873432   -2.251908    0.260754
H      -2.243600   -3.468853   -1.306186
H      -1.699677   -1.855719   -1.975658
H      -1.094011   -2.835722    0.928665
