21

C       0.094513    1.553832   -0.178520
C      -0.023161    0.067636    0.183815
C      -1.449920   -0.494334    0.129102
C      -2.371504    0.149282    1.165377
C      -2.054912   -0.708687   -1.288992
C      -1.235740   -2.016842   -1.527668
O      -2.391011   -2.820387   -1.907987
C      -2.871186   -1.960702   -0.833779
C      -1.554343   -2.040065    0.001831
H       1.141566    1.872173   -0.176724
H      -0.310184    1.752090   -1.177034
H      -0.442212    2.191594    0.530116
H       0.619146   -0.511482   -0.490634
H       0.379560   -0.092459    1.193270
H      -2.500244    1.220908    0.982283
H      -3.367485   -0.303768    1.161281
H      -1.960584    0.036348    2.175570
H      -2.353726    0.018875   -2.045060
H      -0.298656   -2.178154   -2.058115
H      -3.911399   -2.051175   -0.524838
H      -1.279683   -2.820471    0.713464
