19

C      -0.062986    1.564741    0.075031
N      -0.011919    0.121573    0.096702
C      -1.237895   -0.632431    0.412921
C      -0.369104   -1.648461    1.183134
O      -0.048775   -2.789930    0.391057
C       1.200244   -2.897420   -0.135149
N       2.220661   -2.172311    0.015662
C       2.135612   -1.007146    0.885210
C       0.719278   -0.549065    1.193698
H       0.942824    1.970875   -0.075377
H      -0.686131    1.902999   -0.759359
H      -0.473277    1.998128    1.008048
H      -1.925513   -0.096131    1.088572
H      -1.794548   -1.013544   -0.448886
H      -0.742303   -2.011590    2.141034
H       1.239346   -3.784160   -0.765246
H       2.659531   -1.241336    1.822312
H       2.697069   -0.187767    0.419655
H       0.682300    0.024779    2.135592
