17

C       0.033648    1.561266    0.017873
C      -0.046736    0.067264    0.077536
C      -1.336252   -0.770434   -0.012598
C      -0.701638   -1.795329    1.001835
O      -1.286428   -1.781821    2.281734
C      -0.540120   -3.170075    0.498832
N      -0.430914   -4.242382    0.079699
C       0.575002   -0.931613    1.018240
N       1.104933   -0.734783   -0.318007
H       1.045791    1.895109    0.259135
H      -0.209732    1.923916   -0.987639
H      -0.667619    2.021362    0.721347
H      -2.201249   -0.298021    0.458716
H      -1.608324   -1.138838   -1.006327
H      -2.134081   -2.239818    2.242159
H       1.216687   -0.826550    1.885182
H       0.900303   -1.498482   -0.960952
