22

C      -0.026931    0.597716   -2.117726
N       0.140802   -0.393143   -1.065245
C       1.376847   -0.466256   -0.262215
C       1.839400   -1.881852    0.025267
C       2.508566    0.523464   -0.473811
C       0.093048    0.018771    0.319010
C      -0.244499    1.387114    0.920093
O      -1.043679    0.755630    1.941198
C      -0.826030   -0.563498    1.388922
H       0.360940    1.599818   -1.883230
H       0.471078    0.244511   -3.025996
H      -1.094538    0.696940   -2.339376
H       2.464149   -2.257702   -0.793213
H       2.434342   -1.921681    0.944884
H       0.985446   -2.554636    0.130960
H       2.161125    1.549454   -0.612153
H       3.177327    0.517172    0.393586
H       3.107121    0.248291   -1.349912
H       0.589493    1.960304    1.345276
H      -0.842446    2.051884    0.281244
H      -1.750326   -1.012438    1.003312
H      -0.366975   -1.243176    2.117924
