17

O      -0.915369    1.829772    0.553570
C      -0.645599    0.460559    0.780373
C      -1.708500   -0.434015    0.094685
N      -3.076414   -0.085979    0.470617
C      -3.701232   -0.929314    1.486842
C      -3.024241   -1.005850    2.790653
C      -2.455373   -1.061592    3.849150
C      -1.548118   -0.301914   -1.369857
N      -1.378041   -0.143194   -2.502084
H      -0.741708    2.020631   -0.376113
H       0.360113    0.174486    0.442743
H      -0.715272    0.303568    1.858658
H      -1.509440   -1.478807    0.360217
H      -3.097745    0.895248    0.729999
H      -4.722506   -0.560266    1.633220
H      -3.804022   -1.942091    1.077388
H      -1.965844   -1.109824    4.790793
