23

C      -0.455003    1.560622   -0.747675
C      -0.575127    0.031778   -0.717722
C       0.508446   -0.645143   -1.534348
C       1.872639   -0.918729   -0.942246
C       0.973791   -2.068877   -1.316024
C       0.375255   -2.986727   -0.252814
C      -0.908145   -3.676885   -0.760895
C       1.360943   -3.978833    0.182561
C       2.165989   -4.806031    0.519384
H       0.508553    1.885844   -0.341989
H      -0.527414    1.941089   -1.772503
H      -1.247798    2.033425   -0.159650
H      -0.533721   -0.309939    0.322881
H      -1.563007   -0.261340   -1.097369
H       0.511109   -0.331745   -2.576768
H       2.761731   -0.732197   -1.534303
H       1.999428   -0.718290    0.118124
H       1.250176   -2.609244   -2.218227
H       0.109562   -2.380423    0.622510
H      -0.691272   -4.286321   -1.643438
H      -1.330219   -4.331585    0.006140
H      -1.657082   -2.928481   -1.034800
H       2.879797   -5.529266    0.826905
