13

N       0.048894   -1.183168   -0.065366
C       0.042696   -0.029064   -0.006315
C       0.017316    1.427488    0.058595
C      -0.172969    2.139980    1.402613
C       1.248062    2.271665    1.975999
O       2.146599    1.610853    1.086066
C       1.382241    2.195212    0.009078
C       0.765965    3.268648    0.980931
H      -0.673066    1.826651   -0.688632
H      -1.069175    2.189504    2.005700
H       1.489132    2.331292    3.027988
H       1.938683    2.329241   -0.914672
H       0.664970    4.343781    0.962393
