21

O      -0.013407    1.423766   -0.042780
C      -0.008631    0.001974   -0.012228
C      -1.434603   -0.483849   -0.033421
C      -2.514333    0.014658    0.997716
C      -3.487764   -0.544793   -0.097178
C      -2.446414   -0.014519   -1.116643
C      -3.182222   -2.053114    0.013576
C      -2.369692   -2.750571   -1.050147
C      -1.664293   -2.009133    0.060491
H       0.898862    1.727098   -0.042103
H       0.532557   -0.413269   -0.878591
H       0.494298   -0.372413    0.895473
H      -2.529849   -0.467774    1.979813
H      -2.537408    1.102118    1.097837
H      -4.534999   -0.245828   -0.145479
H      -2.460576    1.073782   -1.181199
H      -2.399863   -0.436287   -2.121785
H      -3.759385   -2.645826    0.714513
H      -2.339214   -3.833571   -0.972340
H      -2.348643   -2.398908   -2.074580
H      -1.093308   -2.566186    0.796147
