17

O       0.046284    1.459613   -0.138534
C      -0.008096    0.086686   -0.389562
C      -1.272917   -0.519908    0.193800
O      -2.055223    0.208207    0.779692
C      -1.567538   -1.985377    0.059562
C      -2.361970   -2.604202    1.232264
C      -3.067952   -2.346520   -0.031703
C      -0.655498   -2.921424   -0.641684
O       0.390851   -2.639582   -1.171486
H      -0.763309    1.663347    0.355081
H       0.019787   -0.133847   -1.467170
H       0.859713   -0.441261    0.033240
H      -2.107343   -3.623725    1.500122
H      -2.526747   -1.922248    2.057193
H      -3.722605   -1.485491   -0.084371
H      -3.323101   -3.179916   -0.676930
H      -1.030274   -3.971802   -0.644497
