20

C       0.042289    1.633994   -0.133816
C      -0.222159    0.130027   -0.267797
C       0.742658   -0.549129   -1.239108
C       2.212458   -0.724893   -0.795238
O       2.995375   -0.001584   -0.248427
C       2.238052   -2.204150   -1.215644
C       0.721867   -2.083421   -1.439603
C      -0.338234   -3.022044   -1.016498
N      -0.008740   -2.838614   -2.447809
H       1.067897    1.815645    0.197533
H      -0.096041    2.145103   -1.093103
H      -0.641370    2.088984    0.589079
H      -0.139241   -0.351651    0.713966
H      -1.252056   -0.040837   -0.608691
H       0.722686   -0.034596   -2.211917
H       2.801749   -2.371321   -2.139923
H       2.590018   -2.907282   -0.455881
H      -0.072654   -3.994190   -0.609315
H      -1.271814   -2.612583   -0.638986
H      -0.710821   -2.249426   -2.890839
