15

N      -0.105715    1.236290    0.288123
C      -0.000993    0.000723    0.032722
N       1.139434   -0.785608   -0.151561
C       0.910912   -2.099610   -0.547420
O       1.768578   -2.911817   -0.786614
C      -0.600299   -2.285315   -0.596812
C      -1.205621   -2.840891    0.712825
O      -1.596218   -1.515289    1.134313
C      -1.184566   -0.938992   -0.128144
H       0.803752    1.690450    0.394289
H       2.082376   -0.437840   -0.050435
H      -0.920284   -2.739414   -1.532702
H      -2.075594   -3.489946    0.561633
H      -0.511134   -3.318876    1.411478
H      -2.013395   -0.471613   -0.663717
