17

O      -0.164155    1.450240    0.075095
C      -0.032312    0.077974    0.035374
C      -0.934356   -0.845843   -0.781919
O      -0.930857   -1.832937    0.286575
C      -0.191281   -0.948574    1.134063
C       1.175599   -0.675251    0.557940
C       1.970599   -1.713378   -0.224963
C       2.933067   -2.420582    0.612991
C       3.725913   -2.982073    1.320456
H       0.552843    1.843243   -0.434286
H      -1.937293   -0.426295   -0.916002
H      -0.563586   -1.249574   -1.731357
H      -0.461640   -0.896883    2.181556
H       1.767423   -0.042578    1.216281
H       1.269711   -2.434699   -0.660539
H       2.497827   -1.236726   -1.061881
H       4.423358   -3.490918    1.938267
