24

C      -0.498377    1.504251   -0.418704
C       0.003657    0.071208   -0.243646
C      -1.144306   -0.923905   -0.411621
C       1.267484   -0.267445   -1.100245
C       2.115007   -0.488806    0.195290
C       2.617477   -1.921685    0.370417
C       3.262670    0.506666    0.363223
C       0.851109   -0.150422    1.051889
H       0.312658    2.230868   -0.301288
H      -0.934057    1.650758   -1.414373
H      -1.270080    1.745190    0.322284
H      -1.596690   -0.839952   -1.407081
H      -0.801309   -1.956809   -0.289139
H      -1.932616   -0.745568    0.329596
H       1.161940   -1.157509   -1.728143
H       1.616961    0.553824   -1.733484
H       3.389307   -2.162405   -0.370509
H       3.053134   -2.068036    1.366120
H       1.806670   -2.648552    0.252962
H       2.919399    1.539456    0.240553
H       3.714970    0.422990    1.358744
H       4.051108    0.328441   -0.377884
H       0.956537    0.739441    1.680093
H       0.501632   -0.971926    1.684823
