16

C      -0.019165    1.522063    0.037009
C      -0.006643    0.028233    0.024857
C      -0.026164   -0.800646   -1.044229
C      -0.003194   -2.279775   -0.647193
C       0.032572   -2.126103    0.832225
C       0.030804   -0.830680    1.216632
N       0.064643   -0.753202    2.601585
C       0.084772   -1.999992    2.959863
O       0.066990   -2.914541    1.934056
H       0.871350    1.917250    0.539257
H      -0.052986    1.927349   -0.977357
H      -0.884518    1.902108    0.592044
H      -0.055054   -0.488535   -2.080359
H      -0.889272   -2.813960   -1.012852
H       0.872728   -2.798412   -1.057042
H       0.113313   -2.411829    3.956093
