17

N      -0.309388   -1.140709   -0.182242
C      -0.108521   -0.008383   -0.083633
C       0.069281    1.433924    0.041083
C       1.517598    1.881370    0.055906
N       2.479812    1.065106    0.048363
C       3.843720    1.583510    0.010788
C       3.918193    3.041637   -0.453303
C       2.842350    3.835717    0.274309
O       1.547674    3.240762    0.079771
H      -0.446116    1.938496   -0.784609
H      -0.420718    1.783147    0.957878
H       4.280464    1.473767    1.012436
H       4.429715    0.934624   -0.648218
H       4.903123    3.475697   -0.254697
H       3.741877    3.101208   -1.533118
H       3.045230    3.871500    1.352563
H       2.751838    4.859944   -0.093661
