21

C      -0.210473    1.541806   -0.006668
C       0.032565    0.033271   -0.016232
C       0.767202   -0.508672   -1.290760
C       1.907768   -1.345206   -0.685934
O       2.898630   -0.462405   -0.147092
C       2.325930    0.094951    1.058126
C       0.924797   -0.525620    1.129156
C       1.267622   -1.929325    0.592546
O       0.108782   -2.715124    0.407401
H       0.712614    2.113007   -0.149638
H      -0.892494    1.823154   -0.816055
H      -0.665601    1.867990    0.935354
H      -0.935466   -0.467620    0.065162
H       0.103520   -1.114632   -1.913259
H       1.182948    0.292252   -1.908578
H       2.406206   -2.040475   -1.364939
H       2.945737   -0.187954    1.919499
H       2.320443    1.187814    0.991416
H       0.469706   -0.487383    2.120379
H       2.011358   -2.446202    1.214029
H       0.372351   -3.544593   -0.002448
