17

C      -0.018237    1.540491   -0.004963
O       1.275487    2.127416   -0.084702
C       2.232959    1.398479   -0.795974
C       2.750094    0.126447   -0.115136
O       2.205679   -0.160566    1.139948
C       0.853876   -0.604623    1.143310
C       0.024511    0.011437    0.015092
O       0.570939   -0.433089   -1.230397
C       1.885241    0.035450   -1.353347
H      -0.478971    1.935743    0.906070
H      -0.629314    1.844588   -0.867274
H       2.916036    2.047346   -1.335354
H       3.802736   -0.133760   -0.167953
H       0.810728   -1.697555    1.028847
H       0.446338   -0.340060    2.124333
H      -0.996545   -0.379705    0.059870
H       2.323459   -0.288411   -2.291307
