20

C       0.016480    1.587325   -0.052979
C       0.013162    0.055177   -0.008943
N       0.639092   -0.471892   -1.217311
C       0.795025   -1.919638   -1.200220
C       1.667924   -2.347694   -0.025782
O       2.358669   -3.345664   -0.076161
C       1.551890   -1.527827    1.206821
C       2.318865   -2.000626    2.409327
C       0.740615   -0.459381    1.203695
H       1.041624    1.962480   -0.113059
H      -0.533034    1.946720   -0.929445
H      -0.464201    2.003789    0.837338
H      -1.045041   -0.275081    0.087662
H       0.110263   -0.184057   -2.033544
H      -0.162688   -2.472818   -1.106485
H       1.274993   -2.257525   -2.121864
H       3.394493   -2.000436    2.203945
H       2.127610   -1.364804    3.277409
H       2.056833   -3.033932    2.658215
H       0.580016    0.098648    2.124602
