15

O      -0.010563    0.045646    0.431647
C       0.094838    1.208099    0.002283
O       1.041791    1.922354   -0.351501
C      -1.276896    1.938125   -0.036508
C      -1.587046    3.195708   -0.789197
C      -1.614402    3.243081    0.698753
N      -2.913115    2.651594    1.207961
H      -2.937439    2.557987    2.221970
H      -3.770552    3.117650    0.902573
C      -2.549537    1.313101    0.502776
H      -0.681858    3.634447   -1.199501
H      -2.496858    3.331379   -1.372341
H      -1.049395    3.882181    1.363427
H      -3.340118    0.998999   -0.182604
H      -2.329417    0.551263    1.249062
