18

C       0.128854    1.572149    0.040512
C       0.072899    0.031731    0.039631
C       0.707796   -0.523085   -1.162165
N       1.196827   -0.961295   -2.112816
C       0.707990   -0.554074    1.286103
C       0.329725   -0.324423    2.775223
C       1.681837   -1.070548    2.691278
C       1.098448   -2.017678    1.618359
O       2.096215   -0.142026    1.609196
H       1.164348    1.910307    0.110374
H      -0.316666    1.974806   -0.871533
H      -0.422981    1.960495    0.900202
H      -0.975487   -0.294996    0.028591
H       0.393499    0.708030    3.119438
H      -0.533525   -0.861925    3.175529
H       2.406906   -1.274957    3.476852
H       0.304072   -2.706868    1.914932
H       1.828612   -2.461499    0.942090
