23

C      -0.089503    1.552671    0.062651
C      -0.063734    0.017597   -0.037163
C       0.770128   -0.574591    1.124593
O       0.078949   -0.626045    2.370636
C      -1.514568   -0.513012    0.073475
O      -1.581956   -1.911613    0.286456
C       0.600598   -0.469168   -1.345864
C       0.147177    0.207796   -2.642551
O       0.806775   -0.330754   -3.779019
H       0.900543    1.981865   -0.124488
H      -0.787347    1.996337   -0.654649
H      -0.412003    1.880515    1.058850
H       1.018802   -1.615083    0.899307
H       1.716984   -0.022929    1.220461
H      -0.086393    0.274293    2.667249
H      -2.037848    0.028796    0.873704
H      -2.058259   -0.312190   -0.855522
H      -1.327423   -2.049015    1.206817
H       1.689835   -0.349759   -1.274965
H       0.406951   -1.547535   -1.426852
H      -0.946248    0.143650   -2.755952
H       0.406826    1.270873   -2.636766
H       0.584968   -1.266303   -3.828194
