22

C      -0.005469    1.569266   -0.130629
C       0.085704    0.041944   -0.075503
C       0.709103   -0.503823    1.223924
C      -0.083182   -0.219775    2.490168
C      -0.363662   -1.316817    3.202417
C      -1.125857   -1.412763    4.485297
C       0.170572   -2.523683    2.492160
N      -0.486852   -2.730916    1.166854
C       0.816197   -2.030819    1.250825
H       0.979137    2.033706   -0.001499
H      -0.404499    1.902703   -1.093847
H      -0.662915    1.964553    0.650401
H      -0.906551   -0.404948   -0.193092
H       0.689568   -0.312229   -0.921399
H       1.720239   -0.076559    1.317476
H      -0.408641    0.780012    2.757764
H      -1.420894   -0.426084    4.852636
H      -2.033616   -2.016481    4.359517
H      -0.531191   -1.901169    5.268076
H       0.519125   -3.393147    3.041217
H      -0.307531   -3.687409    0.863817
H       1.688250   -2.514586    0.823110
