20

C      -0.256075    1.560624   -0.000811
C       0.009881    0.072967    0.002633
C       1.071833   -0.498709   -0.981410
C       1.750749   -1.285455    0.182141
C       0.683674   -0.742039    1.166250
C       1.093524   -0.225332    2.520234
O      -0.459898   -1.632199    1.236159
C      -1.172214   -0.888910    0.223258
H       0.676063    2.134220    0.048933
H      -0.775901    1.862191   -0.918811
H      -0.882031    1.860994    0.846696
H       0.671890   -1.100821   -1.802037
H       1.713446    0.275888   -1.409870
H       1.745246   -2.374290    0.100057
H       2.768932   -0.951001    0.400329
H       1.912172    0.496580    2.434768
H       0.252734    0.255813    3.029079
H       1.437723   -1.054767    3.148995
H      -2.073641   -0.415211    0.636727
H      -1.463023   -1.515599   -0.630335
