14

O      -0.041757    1.386177    0.276535
C       0.104701    0.005481    0.124376
C      -0.660660   -0.810217    1.142136
O      -1.397127   -0.104935    2.080081
C      -1.117751   -0.771519   -0.313645
O      -2.204551    0.055869   -0.646811
C      -3.404536   -0.228776   -0.058707
O      -4.364353    0.449448   -0.247827
H      -0.749659    1.673493   -0.316241
H       1.087892   -0.305458   -0.216110
H      -0.243446   -1.740410    1.516399
H      -1.128222    0.822829    1.985083
H      -1.002426   -1.642462   -0.951585
H      -3.364649   -1.137197    0.562568
