17

O      -0.361846    1.621743   -0.084570
C      -0.050962    0.268187   -0.312275
C      -1.278221   -0.610996   -0.057966
C      -1.087204   -2.154563    0.098765
N      -1.551139   -2.007537    1.495645
C      -1.663921   -2.863689    2.557161
O      -2.002857   -2.516424    3.666148
C      -1.694902   -0.606596    1.405629
N      -1.957137    0.327116    2.210639
H      -0.763552    1.678907    0.795529
H       0.276639    0.182258   -1.354059
H       0.781065   -0.079319    0.324616
H      -2.086627   -0.332480   -0.737539
H      -1.737227   -2.778156   -0.518951
H      -0.052400   -2.501068    0.022125
H      -1.414946   -3.908238    2.287822
H      -2.130739   -0.026330    3.152333
