23

C       0.462027   -0.306307    1.251851
O      -0.007883   -0.059703   -0.056120
C       0.705253   -0.563174   -1.151227
C       1.990632   -1.350740   -0.996384
C       0.708076   -2.043622   -1.432143
O       0.037327   -2.855662   -0.512881
C       0.578607    0.390870   -2.333388
C      -0.893266    0.591610   -2.722198
C       1.271698    1.727629   -2.035570
H       0.458195   -1.374356    1.497125
H       1.471553    0.099107    1.408723
H      -0.228721    0.212252    1.921884
H       2.784698   -1.189886   -1.719028
H       2.334534   -1.588740    0.003388
H       0.624368   -2.362241   -2.472022
H       0.527499   -3.681069   -0.433233
H       1.095104   -0.084266   -3.178282
H      -0.977999    1.251456   -3.591618
H      -1.370688   -0.361762   -2.969949
H      -1.450118    1.039460   -1.894899
H       2.332682    1.584420   -1.805374
H       1.199900    2.404379   -2.892906
H       0.802423    2.214947   -1.176096
