23

C      -0.162291    1.555040   -0.075604
C       0.035212    0.039617    0.015257
C       0.778166   -0.500588   -1.223509
C       0.978785   -2.014305   -1.134123
O       1.658133   -2.386819    0.051925
C       0.950434   -1.975247    1.208273
C       0.760664   -0.468717    1.264936
C       1.858817    0.327998    1.925954
C       0.537417    0.124023    2.631167
H       0.793274    2.085367   -0.144460
H      -0.736460    1.803081   -0.974338
H      -0.711640    1.953727    0.782456
H      -0.964566   -0.423758    0.024915
H       0.222237   -0.257857   -2.137518
H       1.758841   -0.014022   -1.297453
H      -0.001161   -2.522980   -1.181783
H       1.586975   -2.383822   -1.965154
H      -0.036515   -2.472577    1.239011
H       1.530811   -2.328071    2.066466
H       2.727234   -0.211105    2.289809
H       2.082923    1.321798    1.555502
H      -0.123666    0.977427    2.730401
H       0.506383   -0.553674    3.479120
