20

C      -0.202451    1.432182   -0.147629
N       0.426570    0.113330   -0.179009
C       0.764967   -0.415636    1.098142
C       2.189591   -0.432029    1.668784
O       1.990851   -1.753635    2.245441
C       0.682871   -1.816909    1.689544
C      -0.190600   -0.713219    2.234393
O       0.008056   -0.157445    3.488432
C      -0.267364   -1.056682    4.549755
H       0.499933    2.161322    0.268974
H      -0.438413    1.743296   -1.169185
H      -1.124067    1.475966    0.455371
H      -0.137064   -0.541319   -0.706538
H       2.945544   -0.466636    0.878363
H       2.443164    0.313215    2.427508
H       0.337404   -2.769329    1.299016
H      -1.234466   -0.790211    1.915396
H      -1.316424   -1.388151    4.538051
H       0.386917   -1.935692    4.500977
H      -0.079609   -0.516597    5.480757
