18

C      -0.266800    1.231049   -0.307151
O       0.942859    1.196300    0.452037
C       0.355953   -0.050297    0.030768
C      -0.152194   -0.898728    1.168293
C      -1.515408   -1.520093    1.379618
C      -2.102446   -2.224444    0.126924
N      -1.174586   -2.025693   -1.016232
C      -0.901868   -3.069906    0.005063
C      -0.265797   -2.398761    1.255738
H      -1.153163    1.551031    0.240146
H      -0.179812    1.628664   -1.317995
H       0.919889   -0.561854   -0.742658
H       0.213372   -0.495848    2.112189
H      -2.106378   -1.320620    2.264639
H      -3.147250   -2.456318   -0.031550
H      -1.586923   -2.495616   -1.822184
H      -0.796945   -4.111496   -0.267835
H       0.228475   -2.972445    2.029581
