17

C       0.241030    1.390417   -0.447665
C       0.131546   -0.102353   -0.048703
C       0.519478   -0.243761    1.422027
C       1.909942   -0.769504    1.701306
O      -0.233538    0.071103    2.322563
C      -1.271591   -0.629711   -0.413497
N      -2.263899   -0.287198    0.448333
O      -1.447150   -1.244929   -1.447498
H       1.260498    1.761926   -0.304040
H      -0.020893    1.508070   -1.502069
H      -0.437251    1.999522    0.154521
H       0.821700   -0.680450   -0.667307
H       2.657502   -0.208287    1.129893
H       2.129593   -0.712017    2.767811
H       1.977133   -1.811517    1.366254
H      -2.016374    0.039130    1.372818
H      -3.178398   -0.673257    0.276389
