16

C       0.526826    1.036110    0.432903
C      -0.300321    0.110417   -0.463570
N       0.389823   -0.880791   -1.275987
C       1.638658   -0.966471   -1.234139
O       2.243374   -1.920993   -2.019835
C       3.618115   -1.991465   -1.967971
N       4.029322   -3.001234   -2.773457
O       4.326084   -1.279158   -1.300393
H       1.101839    0.475973    1.177698
H       1.226072    1.647736   -0.146835
H      -0.141056    1.715280    0.971121
H      -1.027416   -0.439114    0.148533
H      -0.905636    0.712916   -1.153445
H       2.352837   -0.385136   -0.653440
H       3.375161   -3.462597   -3.380676
H       5.015935   -3.103303   -2.930244
