17

O      -0.848010    1.599418    0.535143
C       0.089915    1.095297   -0.025051
C       1.323668    1.881525   -0.498435
O       2.191897    1.267669   -1.076171
C       1.338901    3.354393   -0.188985
C       1.577863    3.780497    1.315753
C       2.755925    4.642440    0.846170
C       3.779107    3.789601    0.156451
C       2.547318    4.193021   -0.604612
H       0.153298    0.011712   -0.262830
H       0.387044    3.777882   -0.521147
H       0.731574    4.343564    1.709566
H       1.824738    2.979246    2.019552
H       2.984401    5.631703    1.221900
H       4.684321    4.305805   -0.146344
H       3.936694    2.756136    0.450552
H       2.604057    4.775367   -1.515401
