21

C      -0.346670    1.438704    0.551015
C      -0.208993   -0.057357    0.446718
O       0.935933   -0.553374   -0.270275
C       0.850656   -0.817794    1.119294
C       1.871187   -0.348127    2.162207
C       1.559237   -1.646735    2.970454
C       0.674064   -1.406590    4.179840
O       0.271973   -2.669664    4.687261
C       0.797640   -2.218368    1.734112
H       0.606740    1.901965    0.817480
H      -0.676445    1.862347   -0.403442
H      -1.090789    1.705020    1.310145
H      -1.131362   -0.594116    0.212965
H       2.886907   -0.333103    1.758388
H       1.678919    0.606442    2.662419
H       2.432765   -2.225705    3.277475
H       1.231397   -0.829047    4.935667
H      -0.199070   -0.800033    3.884200
H      -0.313247   -2.523124    5.436016
H      -0.184630   -2.656053    1.927204
H       1.396327   -2.931301    1.160555
