18

C      -0.021709    1.529347    0.055276
C      -0.000864    0.030073    0.019266
C      -0.915787   -0.854887    0.817524
C       0.576895   -0.969586    1.009342
C       1.299037   -1.721309   -0.133794
C       0.409221   -2.223836   -1.221096
C       0.704026   -0.735606   -1.159269
C       1.382621   -0.059692   -2.209324
N       1.931851    0.507399   -3.058104
H       0.962927    1.948995   -0.176179
H      -0.732134    1.933623   -0.675425
H      -0.319516    1.884990    1.046267
H      -1.417599   -0.332233    1.626891
H      -1.519187   -1.646098    0.387321
H       1.054809   -0.770159    1.959478
H       2.340087   -2.008538   -0.072219
H       0.926608   -2.730935   -2.029142
H      -0.589332   -2.602225   -1.039362
