13

O       0.049478    1.356560   -0.138093
C      -0.002753    0.012590   -0.041403
C      -1.136848   -0.695467    0.059894
N      -1.074576   -2.085337    0.154561
C       0.080753   -2.817571    0.153705
O       0.144760   -4.011718    0.233412
O       1.236739   -2.066976    0.047865
C       1.271140   -0.694937   -0.049981
N       2.353043   -0.040432   -0.145356
H       0.997894    1.569578   -0.196269
H      -2.121240   -0.250156    0.073379
H      -1.919121   -2.628076    0.230824
H       3.177811   -0.637155   -0.141182
