19

C       0.073297    1.436654   -0.025139
C      -0.080554   -0.063930   -0.026226
C      -0.640135   -0.782445    1.150304
N       0.801874   -0.894644    0.849066
C       1.174027   -1.966685   -0.134146
C      -0.081851   -2.309184   -0.984076
C       0.046662   -0.813092   -1.368963
C       1.598335   -1.076100   -1.340160
H       0.894703    1.753571   -0.677024
H      -0.843081    1.921765   -0.381044
H       0.283830    1.803049    0.983201
H      -0.836247   -0.199407    2.046769
H      -1.294607   -1.638971    1.041758
H       1.817435   -2.729277    0.303598
H       0.178522   -2.961228   -1.819534
H      -0.993377   -2.681963   -0.517100
H      -0.460881   -0.385592   -2.233866
H       2.257914   -0.235074   -1.115995
H       1.960025   -1.639268   -2.202911
