21

C       0.193919    1.473803   -0.052528
C       0.086262    0.021468   -0.072832
C       0.011159   -1.180642   -0.091019
C      -0.104752   -2.634262   -0.101082
C      -1.560313   -3.147674    0.078014
C      -2.456202   -2.706080   -1.082616
C      -1.511599   -4.652669    0.274576
C      -2.517377   -5.601251   -0.219122
O      -1.257995   -5.460247   -0.881143
H       1.088570    1.799279    0.490054
H       0.255052    1.884862   -1.066398
H      -0.672727    1.931694    0.437346
H       0.291870   -3.038646   -1.041567
H       0.522572   -3.054404    0.696465
H      -1.945254   -2.716826    1.012019
H      -3.512041   -2.898924   -0.872136
H      -2.339582   -1.634088   -1.258841
H      -2.183949   -3.238723   -1.999183
H      -0.933340   -4.965009    1.147895
H      -2.665139   -6.544723    0.305227
H      -3.378913   -5.245182   -0.779081
