9

O       0.003146   -0.082339    0.003387
C      -0.002834    1.130334    0.006780
C       1.190873    1.941013    0.000521
C       2.184329    2.620230   -0.004671
C      -1.244151    1.886612    0.017255
C      -2.292711    2.489660    0.026023
C      -3.472079    3.175602    0.035915
N      -4.473551    3.763855    0.044308
H       3.067427    3.213239   -0.009272
