23

C      -0.253180    1.523516    0.083941
O      -0.157186    0.140641    0.363231
C      -1.321068   -0.631115    0.025863
C      -1.420598   -0.808910   -1.492872
C      -1.260524   -1.965330    0.769613
C      -2.464465   -2.858443    0.523981
C       0.094087   -2.641609    0.951512
C      -0.625069   -2.052746    2.142995
O      -0.137575   -0.959056    2.851089
H       0.640647    1.994994    0.499362
H      -0.285326    1.729315   -0.993421
H      -1.142874    1.968315    0.553220
H      -2.208833   -0.080609    0.382303
H      -0.567670   -1.386036   -1.861982
H      -2.340180   -1.333415   -1.763589
H      -1.436473    0.155741   -2.007160
H      -2.499162   -3.234505   -0.504424
H      -2.434890   -3.729838    1.184728
H      -3.404194   -2.327727    0.721183
H       0.159337   -3.719645    0.838719
H       0.962421   -2.094742    0.599886
H      -1.090410   -2.753143    2.831064
H       0.125042   -0.308833    2.184095
