17

O      -0.073572    1.445683   -0.004890
C       0.012117    0.026376   -0.008409
C      -1.411053   -0.520763    0.044401
C      -1.405903   -2.053937    0.139778
C      -0.409561   -2.678032   -0.802728
C       0.542145   -1.988017   -1.430274
C       0.741617   -0.504078   -1.250142
H       0.820436    1.797628   -0.064300
H       0.551817   -0.323009    0.888745
H      -1.941479   -0.075739    0.891715
H      -1.934489   -0.203251   -0.865750
H      -1.180796   -2.370264    1.169359
H      -2.409926   -2.444472   -0.068137
H      -0.490032   -3.750730   -0.963399
H       1.222557   -2.498451   -2.107681
H       0.371954    0.044382   -2.128762
H       1.814810   -0.275877   -1.182478
