15

N      -0.248687    1.437631   -0.077966
C      -0.071763    0.013521   -0.058287
C      -1.227931   -0.773544   -0.062406
O      -2.430070   -0.178849   -0.084125
C      -1.110725   -2.168508   -0.043782
C       0.165794   -2.701323   -0.021899
N       1.292809   -1.973197   -0.017360
C       1.155013   -0.653478   -0.035322
O       2.283121    0.094402   -0.030998
H       0.206006    1.847554   -0.889355
H       0.187362    1.867640    0.733257
H      -2.231551    0.777586   -0.093438
H      -1.993378   -2.794873   -0.046616
H       0.302842   -3.779500   -0.006946
H       3.012598   -0.541211   -0.014358
