17

C       0.181984    1.372209    0.180300
C      -0.215894   -0.103285   -0.027805
C      -1.666399   -0.267513   -0.110023
C      -2.858929   -0.384099   -0.201712
C       0.444942   -0.658617   -1.282686
N       1.870454   -0.954761   -1.190865
C       0.922873   -2.072629   -1.390772
C       0.794814   -3.010103   -0.300591
N       0.674569   -3.772262    0.560195
H       1.269789    1.452976    0.252217
H      -0.165538    1.990931   -0.652800
H      -0.263064    1.761588    1.098758
H       0.157851   -0.682990    0.825156
H      -3.912591   -0.501198   -0.264443
H       0.068672   -0.232500   -2.211651
H       2.354160   -0.754612   -2.061983
H       0.868218   -2.537047   -2.371603
