21

C      -0.067725    1.504242    0.043541
C       0.023671   -0.005547    0.004233
C       1.386958   -0.681670   -0.124438
C       0.616349   -0.756882    1.152986
O       1.099441   -0.094155    2.338261
C       0.807621   -1.271993    3.105432
C      -0.659055   -1.580188    3.120663
C      -1.742173   -0.526037    3.108461
C       0.187819   -1.982925    1.919321
H       0.732989    1.926415    0.656859
H       0.008577    1.931256   -0.962268
H      -1.020208    1.831396    0.474747
H      -0.796923   -0.503865   -0.507124
H       1.477431   -1.576310   -0.732608
H       2.260992   -0.037876   -0.126791
H       1.539502   -1.574599    3.845339
H      -0.875218   -2.449192    3.741085
H      -1.394806    0.380737    2.609528
H      -2.640393   -0.882886    2.593603
H      -2.026394   -0.256042    4.131251
H       0.293034   -3.003363    1.575220
