18

C      -0.191968    1.447528   -0.526079
N      -0.165612   -0.008495   -0.495900
C      -1.072143   -0.629061    0.094169
C      -1.389080   -2.087208    0.329388
C      -2.615874   -1.531788    1.114549
C      -2.669127   -1.778936    2.605157
O      -2.189417   -0.163913    0.784411
C      -3.931910   -1.812308    0.406042
O      -4.809190   -2.502405    0.852263
H       0.728973    1.829437   -0.072552
H      -0.196487    1.781939   -1.569029
H      -1.050311    1.891508   -0.008980
H      -1.611398   -2.657505   -0.575571
H      -0.669428   -2.637857    0.937076
H      -1.688614   -1.613289    3.058221
H      -3.392719   -1.108472    3.076427
H      -2.988648   -2.806340    2.797048
H      -4.008220   -1.323671   -0.590982
