19

C      -0.416342    0.922741    0.072757
O       0.420286   -0.223054    0.164762
C       0.901984   -0.633357   -1.076799
C       1.444154   -2.028985   -1.151444
C       0.120405   -1.677401   -1.833212
N      -1.136819   -2.097493   -1.279040
C      -1.390525   -3.525756   -1.440750
C      -2.674146   -3.902179   -0.841950
N      -3.675481   -4.205040   -0.352585
H       0.130969    1.778843   -0.347188
H      -1.299777    0.728658   -0.549070
H      -0.732644    1.167114    1.088898
H       1.396797    0.152606   -1.647951
H       2.328574   -2.212821   -1.751414
H       1.382562   -2.607707   -0.235248
H       0.119312   -1.617117   -2.918897
H      -1.166717   -1.844338   -0.296108
H      -1.429712   -3.759205   -2.511941
H      -0.606192   -4.172787   -1.009935
