19

C      -0.018049    1.572476    0.138255
C       0.001780    0.046005    0.014725
C       0.666602   -0.473631   -1.270628
C       0.797536   -2.021769   -1.312341
C       0.572982   -2.434040   -2.788828
C      -0.140637   -1.234052   -3.365677
C      -0.084893   -0.180119   -2.553679
H       0.996868    1.984781    0.106710
H      -0.588485    2.037836   -0.672261
H      -0.474292    1.886491    1.082340
H       0.534378   -0.377134    0.876581
H      -1.022964   -0.345027    0.065759
H       1.666000   -0.012065   -1.332238
H       1.751754   -2.373371   -0.910902
H       0.006754   -2.457559   -0.690664
H       1.522986   -2.607263   -3.314709
H      -0.000871   -3.362954   -2.884853
H      -0.601112   -1.243578   -4.347995
H      -0.492218    0.799290   -2.780560
