18

C      -0.128617    1.340063    0.018694
O       0.017702   -0.060169    0.031669
C       0.542641   -0.567407   -1.170662
C       0.624278   -2.073636   -1.076188
O      -0.712426   -2.595325   -1.093129
C      -0.831762   -3.925272   -0.992618
N       0.142913   -4.731087   -0.907279
C      -2.291208   -4.327765   -0.996889
O      -2.634041   -5.478358   -0.922667
H       0.836422    1.851137   -0.127609
H      -0.815748    1.671650   -0.775645
H      -0.539962    1.633726    0.987102
H      -0.087056   -0.280339   -2.029328
H       1.556477   -0.173091   -1.357839
H       1.186543   -2.489920   -1.918756
H       1.120607   -2.382549   -0.151180
H      -0.232546   -5.679984   -0.842483
H      -3.009425   -3.487601   -1.072035
