21

C      -0.069235    1.644441   -0.006734
C      -0.234335    0.157977    0.212851
C      -1.379651   -0.477373   -0.558245
O      -1.147570   -0.414713   -1.955187
O       0.970494   -0.636629    0.117488
C       0.298144   -0.554840    1.387579
C       1.053692    0.077287    2.530581
C       2.163588   -0.843505    3.054275
O       2.833412   -0.304048    4.181236
H       0.890104    2.004729    0.366494
H      -0.126684    1.856200   -1.078170
H      -0.872317    2.199233    0.490596
H      -1.516862   -1.515602   -0.222049
H      -2.314149    0.064472   -0.376166
H      -0.306045   -0.860867   -2.108007
H      -0.209028   -1.484712    1.659871
H       1.492986    1.030482    2.218586
H       0.357232    0.291172    3.350674
H       1.732532   -1.792568    3.392248
H       2.862259   -1.076236    2.237307
H       3.321275    0.473007    3.890649
