21

C      -0.135957   -1.193378    0.445064
C      -0.087094   -0.024371    0.168701
C      -0.008961    1.397664   -0.164717
C       1.407964    1.947375   -0.147068
C       1.962343    2.461858   -1.246330
C       3.339746    3.071221   -1.295615
C       3.905138    3.345590    0.105143
C       3.638420    2.158669    1.037092
C       2.132171    1.900751    1.178621
H      -0.186145   -2.226492    0.684435
H      -0.456890    1.566429   -1.150872
H      -0.627213    1.957875    0.553097
H       1.400962    2.450097   -2.179175
H       4.013333    2.399155   -1.848973
H       3.310753    3.998232   -1.882495
H       4.977388    3.560183    0.044885
H       3.426116    4.242535    0.519166
H       4.120123    1.262283    0.625470
H       4.083872    2.330687    2.022790
H       1.683774    2.642726    1.857781
H       1.955492    0.927091    1.651090
