16

O      -0.087454    1.441060    0.058517
C       0.066011    0.031285    0.012985
C       0.728935   -0.509429    1.284905
O       0.827131   -1.920873    1.233743
C      -0.436622   -2.559497    1.244298
C      -1.369077   -2.069420    0.133307
O      -2.112122   -2.822161   -0.448083
C      -1.332933   -0.571063   -0.132314
H       0.783284    1.844355   -0.019203
H       0.681847   -0.272526   -0.847339
H       1.752169   -0.132439    1.382486
H       0.154371   -0.176151    2.165688
H      -0.267085   -3.630343    1.119509
H      -0.949037   -2.398512    2.211122
H      -1.971194   -0.095390    0.627381
H      -1.775960   -0.362494   -1.108339
