18

C      -0.031508    1.583251    0.040971
C       1.281668    0.827270    0.021641
C       2.152991    0.737900    1.276933
C       2.102267   -0.673675    1.866705
C       1.353385   -0.949835    3.154814
C       0.736243   -1.307066    1.837027
O      -0.295623   -0.467971    1.384996
C      -0.026016    0.087170    0.123136
H      -0.290266    2.117485    0.949392
H      -0.378793    2.046320   -0.876324
H       1.806506    0.777795   -0.926959
H       3.185153    1.004826    1.035017
H       1.815498    1.467010    2.020160
H       2.949951   -1.313660    1.644001
H       1.698953   -1.754056    3.795347
H       0.923031   -0.101731    3.677409
H       0.619985   -2.353897    1.561019
H      -0.392861   -0.501313   -0.716307
