22

C       1.156019    1.304334    0.136248
C       0.570748   -0.105049    0.003283
N       0.445304   -0.557825   -1.378947
C       1.625347   -1.007331   -2.107996
C       1.921831   -2.491158   -1.923770
O       2.307453   -2.723532   -0.583679
C       2.534638   -4.085620   -0.305932
C      -0.759436   -0.587032   -2.010701
O      -0.944406   -0.958392   -3.153452
H       2.159897    1.366008   -0.294851
H       0.524171    2.039844   -0.370933
H       1.231028    1.583108    1.192154
H       1.183350   -0.830633    0.544954
H      -0.429615   -0.130717    0.448715
H       1.448315   -0.817631   -3.169375
H       2.491343   -0.422165   -1.783954
H       1.028784   -3.081116   -2.181341
H       2.729388   -2.789671   -2.614194
H       1.630832   -4.691953   -0.472569
H       3.343528   -4.497988   -0.929306
H       2.824822   -4.162604    0.744646
H      -1.578161   -0.226896   -1.356238
