20

C       0.246584    1.700509   -0.038561
C       0.044756    0.193923    0.009031
C       0.846706   -0.713702   -0.971630
C       1.153636   -1.714525    0.194446
C       2.562807   -1.547897    0.827473
C       2.033663   -0.358131    1.679832
C       0.577281   -0.637437    1.205935
C       0.612188   -3.045112    0.064342
N       0.173296   -4.112118   -0.030098
H       1.303534    1.975309    0.041247
H      -0.126372    2.109932   -0.983650
H      -0.291728    2.199442    0.774704
H      -1.022165   -0.027960   -0.102677
H       0.279459   -1.129687   -1.805286
H       1.758543   -0.255128   -1.365715
H       2.842128   -2.409332    1.437253
H       3.370188   -1.343654    0.119582
H       2.182868   -0.477792    2.754158
H       2.424630    0.621078    1.395083
H      -0.133125   -0.903931    1.988520
