16

O      -0.031109    1.338778    0.125542
N       0.079340   -0.061182    0.141649
C      -1.057542   -0.611211    0.070205
C      -2.482614   -0.150716   -0.154740
C      -2.809640   -1.601576   -0.664569
C      -2.824829   -1.724446   -2.106669
C      -2.763372   -1.836622   -3.303461
C      -1.418490   -2.085761   -0.046987
O      -0.617032   -2.974125   -0.746349
H       0.891224    1.616039    0.154689
H      -3.010233    0.101974    0.769502
H      -2.613286    0.659464   -0.873026
H      -3.690799   -2.070184   -0.220771
H      -2.751540   -1.930229   -4.361402
H      -1.593244   -2.528655    0.939611
H      -0.527702   -2.642773   -1.649364
