21

C      -0.011498    1.384188   -0.064715
O       0.001601   -0.017675    0.085669
C      -1.272102   -0.624096    0.033221
C      -1.781747   -0.815104   -1.406354
O      -3.063545   -1.425798   -1.404087
C      -3.040533   -2.717346   -0.816631
C      -2.579730   -2.658729    0.642760
C      -1.200721   -1.982858    0.736731
O      -0.200655   -2.751618    0.077740
H       1.016806    1.729295    0.068365
H      -0.358079    1.703762   -1.058128
H      -0.648286    1.868140    0.692746
H      -2.009306   -0.011833    0.578850
H      -1.902790    0.146110   -1.912416
H      -1.052005   -1.417431   -1.965484
H      -4.060226   -3.105238   -0.892238
H      -2.374183   -3.382281   -1.386891
H      -3.308355   -2.094747    1.237060
H      -2.530073   -3.670644    1.065527
H      -0.921164   -1.816317    1.787502
H      -0.122504   -3.592229    0.538968
