17

C      -0.065417    1.485060   -0.105727
N       0.003839    0.032115   -0.076990
C      -1.240083   -0.701235    0.102287
C      -1.089663   -2.108976   -0.463015
C       0.133477   -2.751386    0.116217
N       0.182538   -3.953376    0.491031
O       1.244533   -1.934518    0.189989
C       1.231434   -0.558070    0.011148
O       2.289362    0.012481   -0.038882
H       0.939250    1.874984   -0.257064
H      -0.715612    1.814485   -0.923612
H      -0.466128    1.879303    0.837052
H      -1.527842   -0.737249    1.163998
H      -2.031253   -0.162737   -0.428286
H      -1.955079   -2.733694   -0.242668
H      -0.974268   -2.048887   -1.552164
H       1.116936   -4.182485    0.836532
