18

C      -0.481968    1.464060   -0.037583
C       0.039703    0.034445   -0.029769
C       1.356701   -0.234189   -0.821718
N       1.948652   -0.767653    0.403019
C       3.255615   -1.026728    0.667496
O       4.125577   -1.008731   -0.176917
C       0.806490   -0.482529    1.255061
C       1.020853    0.539255    2.352192
O       2.069718    1.073798    2.598431
H       0.293743    2.177186    0.260434
H      -0.812009    1.735321   -1.045611
H      -1.337212    1.589191    0.634290
H      -0.754966   -0.660485   -0.307836
H       1.287489   -0.960236   -1.636974
H       1.863644    0.665075   -1.188753
H       3.430083   -1.279106    1.730054
H       0.338363   -1.365906    1.714347
H       0.099920    0.762578    2.937818
