15

C       0.015192    1.520184   -0.020776
C       0.015382    0.028002   -0.040900
C      -0.117307   -0.815536   -1.108345
N      -0.046802   -2.100982   -0.585277
C       0.124348   -1.952226    0.748715
O       0.237389   -3.072618    1.510757
C       0.095205   -2.942284    2.873665
O       0.233806   -3.883460    3.587487
N       0.172973   -0.707483    1.129118
H       0.953094    1.908695    0.390274
H      -0.110506    1.924110   -1.028751
H      -0.795525    1.906250    0.606511
H      -0.243543   -0.638800   -2.162862
H      -0.110021   -2.974712   -1.079718
H      -0.147224   -1.912635    3.167233
