23

C      -0.429548    1.071289   -1.777460
C      -0.136838   -0.137126   -0.911650
C       1.262138   -0.505441   -0.444613
C       2.493352    0.314844   -0.798473
C       3.028613   -0.069972   -2.162264
O       3.240745    0.699106   -3.063848
C       0.215224   -0.060083    0.563586
C       0.337761    1.282775    1.261366
C      -0.357409   -1.140453    1.465760
H       0.203196    1.930133   -1.543775
H      -0.273060    0.835585   -2.835571
H      -1.471194    1.389870   -1.659476
H      -0.754733   -0.993736   -1.174234
H       1.472237   -1.573745   -0.430496
H       2.314964    1.391200   -0.798030
H       3.286234    0.109112   -0.063356
H       3.215714   -1.163140   -2.287724
H       0.723204    2.074094    0.616396
H      -0.640634    1.610709    1.631611
H       1.005385    1.208356    2.127960
H       0.270765   -1.291237    2.352164
H      -1.361150   -0.869696    1.815053
H      -0.434358   -2.099817    0.944511
