14

O      -0.032432    1.338991    0.009882
C       1.112379    2.065470    0.002473
C       2.346501    1.505284   -0.012847
C       2.440550    0.092521   -0.021495
N       3.498518   -0.694229   -0.036282
C       2.977412   -1.981595   -0.038134
C       1.602877   -2.042652   -0.024856
C       1.185907   -0.676609   -0.013230
C       0.009162   -0.003715    0.002138
H       0.899079    3.124731    0.010377
H       3.227032    2.135873   -0.018147
H       3.659269   -2.823310   -0.049495
H       0.977882   -2.922096   -0.023473
H      -0.986116   -0.430615    0.009685
