19

N      -0.084380    1.323792    0.108286
C      -0.140362   -0.051085    0.065000
N      -1.243186   -0.682841    0.001494
C      -1.237798   -2.142766   -0.032058
C      -2.377452   -2.568774   -0.968058
O      -3.589375   -1.957469   -0.591345
C       0.122049   -2.709255   -0.444917
C       1.208204   -1.980056    0.332935
O       1.117175   -0.560889    0.138523
H       0.789796    1.727447   -0.190216
H      -0.912046    1.778230   -0.243644
H      -1.494646   -2.511426    0.973026
H      -2.097575   -2.309568   -2.004645
H      -2.523699   -3.654288   -0.922458
H      -3.340186   -1.044500   -0.384873
H       0.184235   -3.784445   -0.247352
H       0.282269   -2.557755   -1.519432
H       1.126190   -2.190020    1.407281
H       2.213814   -2.253054    0.005064
