14

C       0.039875    1.439401    0.070958
C       1.529127    1.862796   -0.120212
N       2.163257    0.574724    0.056090
N       3.448283    0.120862    0.099722
C       3.246721   -1.187688    0.043962
N       1.941640   -1.609598   -0.073485
C       1.311667   -0.454112   -0.081466
N       0.020395   -0.000117   -0.289605
H      -0.256585    1.592850    1.116734
H      -0.634419    2.010915   -0.569709
H       1.719256    2.261744   -1.123764
H       1.854897    2.596269    0.619916
H       4.072450   -1.882361    0.092141
H      -0.720566   -0.553079    0.117340
