20

C      -0.491219    1.401620    0.122757
C       0.027963   -0.016244    0.090967
N       1.463527   -0.224229   -0.188572
C       0.916799   -0.614943    1.125722
C       1.509442    0.153377    2.275897
O       2.146087    1.340853    1.910155
C       0.827203    0.168540    3.619493
C       2.109153   -0.619059    3.425591
O       2.059976   -2.016990    3.376501
H       0.201825    2.060755    0.646939
H      -0.638519    1.779797   -0.894729
H      -1.458080    1.437471    0.636541
H      -0.647020   -0.726596   -0.386571
H       1.623171   -1.032119   -0.781787
H       0.795860   -1.673968    1.331094
H       2.450515    1.181146    1.001228
H       0.873004    1.090040    4.189413
H      -0.093821   -0.397675    3.718465
H       3.019071   -0.193585    3.846924
H       1.818427   -2.337573    4.251963
