18

O      -0.399375    1.205360    0.044971
C      -0.049780   -0.157105    0.090514
C       0.543804   -0.608593   -1.191388
N       0.992083   -0.964771   -2.194739
C       0.908336   -0.443288    1.260989
O       1.997641    0.423800    1.025886
C       0.180671   -0.374471    2.632455
C       0.074311   -1.924761    2.607202
C       1.169609   -1.955106    1.504968
H       0.432033    1.692012    0.131332
H      -0.978438   -0.717906    0.238197
H       2.581644    0.408291    1.789981
H       0.865981   -0.028667    3.413436
H      -0.732407    0.222058    2.681761
H       0.294807   -2.449768    3.537495
H      -0.895370   -2.270234    2.240754
H       1.046849   -2.632034    0.656248
H       2.169418   -2.104511    1.923568
