16

C      -0.100456    1.509655    0.111239
C      -0.011256    0.025182   -0.032060
C       0.020882   -0.793186   -1.145565
C      -0.028739   -0.372667   -2.584684
C       0.111218   -2.139731   -0.673890
C       0.131426   -2.106141    0.697268
N       0.056614   -0.789952    1.077772
H       0.767248    1.928134    0.637619
H      -0.144651    1.986282   -0.870187
H      -0.996680    1.819566    0.664281
H       0.862850   -0.699421   -3.133337
H      -0.895233   -0.801129   -3.102758
H      -0.093460    0.714047   -2.690349
H       0.155853   -3.028009   -1.286589
H       0.191865   -2.895500    1.429230
H       0.053061   -0.461858    2.027501
