20

C      -0.205455    1.486037   -0.082258
O      -0.197789    0.087436   -0.264169
C      -1.399368   -0.540399    0.130810
C      -1.172861   -2.033901    0.118107
C      -0.152242   -2.540673    1.123869
C       1.258852   -2.041898    0.859560
O       2.012782   -1.667739    1.721262
C      -2.305088   -2.898482   -0.305441
N      -1.139422   -2.723196   -1.184825
H       0.771184    1.859190   -0.397087
H      -0.986264    1.969331   -0.689845
H      -0.369239    1.756176    0.971740
H      -1.691211   -0.209580    1.142109
H      -2.221860   -0.268757   -0.553223
H      -0.428868   -2.278843    2.150164
H      -0.115073   -3.635337    1.050483
H       1.567154   -2.091877   -0.205409
H      -2.412313   -3.890462    0.124596
H      -3.243582   -2.420873   -0.575854
H      -1.351885   -2.069069   -1.934042
