19

O       0.017887    0.015876    0.378727
C       0.002552    1.195527    0.101541
C      -1.300655    1.968329   -0.067587
C      -1.170066    3.160180   -1.024497
O      -0.058528    3.967191   -0.681650
C       1.153838    3.264846   -0.874530
C       1.254248    2.019753   -0.004623
C       2.086320    2.060942    1.276271
C       2.573230    1.295350    0.086085
H      -2.088696    1.275020   -0.374125
H      -1.564518    2.348583    0.928408
H      -1.074301    2.805482   -2.064655
H      -2.054220    3.800890   -0.970636
H       1.250354    2.978947   -1.936544
H       1.964256    3.962839   -0.643361
H       2.556681    3.007132    1.523188
H       1.715788    1.496122    2.124296
H       2.518789    0.213799    0.123982
H       3.400262    1.704237   -0.485367
