17

C      -0.043222    1.500798   -0.024523
C      -0.054167   -0.007230    0.018328
C      -0.539890   -0.738786    1.216585
N       0.913155   -0.677973    0.906652
C       1.382892   -1.848031    0.207910
O       1.989634   -2.744650    0.711406
N       1.075670   -1.757662   -1.201132
C      -0.321625   -2.147835   -1.510713
C       0.040480   -0.721043   -1.325205
H       0.788795    1.866436   -0.635187
H      -0.975936    1.880469   -0.455560
H       0.065797    1.913920    0.980924
H      -0.826808   -0.179471    2.102765
H      -1.046946   -1.691855    1.110159
H      -0.461124   -2.537977   -2.514720
H      -0.892343   -2.667783   -0.748171
H       0.115060   -0.076856   -2.196461
