15

C      -0.147465    1.627434    0.001078
C       0.034168    0.112147   -0.014958
C      -1.243245   -0.555701    0.237303
N      -2.252755   -1.070528    0.462895
N       0.667169   -0.526918   -1.246915
C       2.035450   -0.026371   -1.325461
C       1.762959   -1.146508   -0.379065
C       1.148488   -0.585715    0.864291
O       1.299715   -0.731821    2.035870
H       0.799973    2.153329   -0.126137
H      -0.833135    1.932938   -0.794013
H      -0.574119    1.928897    0.961012
H       2.530739   -0.295420   -2.253039
H       2.293436    0.957460   -0.947194
H       2.144654   -2.150296   -0.520228
