21

C      -0.127705    1.536080    0.066873
C      -0.002488    0.034675   -0.019847
C      -0.075965   -0.574862   -1.220221
C       0.017961   -1.994323   -1.537645
C      -0.256057   -3.040727   -0.746130
C      -0.804914   -2.972045    0.654450
C      -0.080035   -2.055224    1.635352
C       1.356157   -1.659210    1.483689
C       0.255495   -0.616512    1.292932
H       0.773997    1.983007    0.505476
H      -0.292108    1.989497   -0.913528
H      -0.962711    1.822751    0.719936
H      -0.184187    0.074539   -2.087057
H       0.332117   -2.210245   -2.557850
H      -0.113841   -4.037473   -1.155344
H      -1.857366   -2.650903    0.614626
H      -0.818349   -3.983114    1.077943
H      -0.419672   -2.193819    2.660033
H       1.980385   -1.583016    2.367243
H       1.874270   -1.980591    0.588049
H       0.148092    0.071633    2.126640
