23

C       0.029661    1.467729   -0.034759
C       0.314326   -0.023725   -0.092299
O       0.518944   -0.494788    1.223631
C       0.804010   -1.874037    1.285060
C       1.038416   -2.251357    2.745275
C       1.310924   -3.727006    2.899380
O       2.585106   -4.213499    2.450570
C       2.273369   -4.319867    3.844281
C       3.129609   -3.545083    4.812987
H       0.871457    2.001498    0.415439
H      -0.135592    1.864214   -1.041024
H      -0.861813    1.665059    0.567449
H      -0.527836   -0.560354   -0.562430
H       1.205639   -0.224328   -0.710961
H      -0.032684   -2.460742    0.865781
H       1.699049   -2.116344    0.689248
H       1.869972   -1.655992    3.129943
H       0.147435   -1.985169    3.327273
H       0.478246   -4.366299    2.592936
H       2.064030   -5.344915    4.160049
H       3.314678   -2.525635    4.470217
H       2.648943   -3.503005    5.796526
H       4.098229   -4.040905    4.936007
