15

N       0.163061    1.472488   -0.042095
C       0.058205    0.030841    0.036677
C      -1.389133   -0.494337   -0.037081
O      -2.316543    0.272589   -0.131478
N      -1.616221   -1.903031    0.001670
C      -2.980631   -2.340418   -0.110655
O      -3.335936   -3.479841   -0.066426
C      -0.548575   -2.825973    0.141029
O      -0.658432   -4.016640    0.140666
H      -0.264532    1.795370   -0.905372
H      -0.392666    1.891837    0.697945
H       0.644843   -0.418921   -0.773169
H       0.515453   -0.311832    0.972794
H      -3.642399   -1.474724   -0.239732
H       0.421875   -2.319501    0.254940
