17

C       0.007666    1.550828    0.024800
C       0.010140    0.043875   -0.013804
C       0.441146   -0.803943   -1.258195
C      -0.351092   -1.972463   -0.594787
C       0.399909   -2.156727    0.736264
O       1.732042   -1.630396    0.780465
C       0.650258   -0.761832    1.139208
C      -1.298255   -0.813775   -0.139193
O      -2.469415   -0.615402   -0.065838
H       1.022659    1.952497   -0.060090
H      -0.592287    1.962588   -0.792367
H      -0.419782    1.916450    0.964541
H      -0.027592   -0.452263   -2.178424
H       1.510388   -0.961530   -1.381049
H      -0.697731   -2.845313   -1.141306
H       0.175725   -2.969669    1.416729
H       0.638549   -0.395431    2.159989
