16

C       0.097733    1.329140   -0.114761
C      -0.008114   -0.153796    0.091053
N      -0.021870   -0.701130    1.224131
O      -0.082104   -0.756973   -1.164055
C      -0.149330   -2.094185   -1.362271
N      -0.366544   -2.999970   -0.415768
N      -0.362321   -4.174322   -1.089160
C      -0.156658   -4.022823   -2.416804
C      -0.010444   -2.673197   -2.644732
H       0.986027    1.570880   -0.706814
H      -0.771175    1.700059   -0.667548
H       0.155151    1.822344    0.854413
H      -0.111424   -1.714447    1.158853
H      -0.509965   -5.024703   -0.574639
H      -0.130722   -4.868028   -3.085994
H       0.168780   -2.168003   -3.577988
