18

O      -0.316716    0.269345    0.689163
C      -0.153045    1.342086    0.190427
C      -1.055418    2.386196   -0.492194
N       0.149224    3.222908   -0.809691
C       0.456918    4.222809    0.244822
C       0.688794    5.667026   -0.065523
C      -0.507933    5.241985    0.764028
C       1.389804    3.279518    1.014623
C       1.062505    2.235284   -0.087354
H      -1.556901    2.014264   -1.392169
H      -1.799486    2.862101    0.155384
H       1.509665    6.174596    0.430872
H       0.502941    5.984956   -1.085491
H      -1.485907    5.300332    0.296470
H      -0.508706    5.455019    1.828288
H       2.437722    3.586068    1.039508
H       1.079776    3.001601    2.025456
H       1.896091    1.791395   -0.636351
