19

O       0.516589    0.224402   -0.655712
C      -0.270772    0.336945    0.537520
C      -1.613995   -0.340167    0.293042
C      -1.504268   -1.835652   -0.001828
O      -0.876301   -2.101341   -1.233878
C      -0.972222   -2.773907    1.167873
C      -2.319561   -3.500613    1.123999
O      -3.335888   -2.518738    1.384595
C      -2.825924   -2.633320    0.053068
H       1.416687    0.501467   -0.462241
H       0.245782   -0.140983    1.382579
H      -0.422279    1.395426    0.792482
H      -2.241970   -0.203424    1.178739
H      -2.111744    0.150686   -0.552180
H      -0.152251   -1.463575   -1.318049
H      -0.141682   -3.379467    0.800194
H      -0.720400   -2.321082    2.131213
H      -2.557337   -4.529324    1.367850
H      -3.524922   -2.813568   -0.755801
