21

C       0.291432    0.969675    0.644847
O      -0.113223    0.191674   -0.469373
C      -1.359578   -0.471322   -0.283864
C      -1.892152   -0.960008   -1.601316
C      -2.325643   -2.220862   -1.544159
C      -2.952611   -3.013548   -2.645867
C      -2.142809   -2.797581   -0.156163
C      -1.214212   -1.788221    0.558158
O       0.127876   -2.236763    0.532095
H       1.215078    1.479325    0.360525
H      -0.468376    1.722971    0.898512
H       0.484053    0.347618    1.528838
H      -2.058915    0.228331    0.203184
H      -1.931132   -0.314474   -2.471473
H      -3.013441   -2.441948   -3.575735
H      -2.380216   -3.929329   -2.840321
H      -3.966452   -3.334573   -2.374469
H      -3.111337   -2.887804    0.355800
H      -1.688627   -3.794651   -0.158745
H      -1.507702   -1.641391    1.604594
H       0.604871   -1.616346   -0.036827
