15

C      -0.014985    1.444475    0.064532
C      -0.004370   -0.034483   -0.061243
N      -0.098569   -0.745215   -1.152293
C      -0.032947   -2.032720   -0.675353
C       0.098605   -2.057591    0.687975
O       0.119296   -0.754960    1.109156
C       0.163268   -3.393843    1.141026
C       0.063599   -4.148254   -0.018501
N      -0.056451   -3.322842   -1.126494
H       0.910994    1.809193    0.522135
H      -0.118334    1.883066   -0.928202
H      -0.846098    1.782025    0.693140
H       0.265162   -3.781140    2.141133
H       0.068417   -5.219424   -0.138580
H      -0.140483   -3.630636   -2.078791
