21

O      -0.111884   -0.058123   -0.034337
C      -0.109346    1.138502    0.005801
C      -1.199680    2.213112    0.181776
C      -0.070818    3.140302    0.736945
C       0.006168    3.137235    2.273109
C       1.449083    3.176796    2.794969
C       2.227617    1.950034    2.299455
C       2.337279    1.936142    0.767071
C       1.000126    2.200250    0.078161
H      -1.585819    2.541195   -0.788892
H      -2.040839    1.969402    0.835276
H      -0.071610    4.161837    0.351077
H      -0.582298    3.970547    2.672455
H      -0.464068    2.221535    2.658170
H       1.949382    4.095681    2.458054
H       1.445224    3.206379    3.890014
H       3.231605    1.927042    2.736425
H       1.715675    1.041360    2.643250
H       3.052634    2.708630    0.457229
H       2.739259    0.978930    0.416020
H       1.167072    2.529567   -0.956551
