11

C       0.053703    1.538620    0.009323
C      -0.056561    0.016530    0.002879
C      -1.484595   -0.475906    0.013749
O      -2.465104    0.223310    0.026719
C      -1.627076   -1.951885    0.007286
N      -1.723732   -3.104129    0.002161
H       1.103609    1.841129    0.001147
H      -0.438811    1.970001   -0.865494
H      -0.422608    1.961357    0.897229
H       0.434425   -0.427935   -0.874355
H       0.450475   -0.436404    0.866563
