13

O      -0.067542    1.296814    0.009694
C       1.210609    1.799642    0.000296
C       2.154850    0.830416   -0.014064
C       1.425734   -0.410814   -0.013929
C       0.064574   -0.052823    0.000996
N      -0.962598   -0.872645    0.006278
C      -0.592921   -2.159289   -0.004296
N       0.652302   -2.652847   -0.018896
C       1.664688   -1.783157   -0.023750
H       1.272107    2.875842    0.005644
H       3.222995    0.978515   -0.023439
H      -1.398755   -2.887573   -0.000685
H       2.670737   -2.195827   -0.035615
