15

C      -0.209090    1.518389    0.071711
C       0.100936    0.013501   -0.020317
C       0.757980   -0.520049    1.211769
N       2.066311   -0.760235    1.291397
N       2.233751   -1.192007    2.538467
N       1.161927   -1.265268    3.297477
C       0.193508   -0.837819    2.473526
C      -1.165053   -0.748426    2.872827
N      -2.286076   -0.654836    3.144664
H       0.706838    2.096809    0.223149
H      -0.684334    1.864115   -0.850451
H      -0.888671    1.731516    0.902058
H      -0.828502   -0.539269   -0.196005
H       0.761329   -0.183405   -0.869389
H       3.141073   -1.461892    2.885982
