17

C       0.103654    1.456359   -0.090618
N       0.174378    0.004538   -0.074514
C       0.542394   -0.590584    0.971077
O       0.913569    0.005432    2.163023
C       1.071829   -1.044004    3.123729
C      -0.279974   -1.764016    3.310414
N       0.088496   -2.791559    2.277259
C       1.508085   -2.307784    2.341679
C       0.721944   -2.063451    1.117370
H       0.744688    1.834176   -0.895200
H      -0.920677    1.758699   -0.336754
H       0.396006    1.935895    0.850039
H       1.632055   -0.664398    3.975101
H      -0.371442   -2.272160    4.273103
H      -1.179855   -1.177450    3.101195
H       2.370288   -2.951642    2.460592
H       0.806007   -2.669253    0.226161
