21

C       0.051954    1.547583    0.009847
C       1.344705    0.765494   -0.006684
C       0.018109    0.039992    0.002138
C      -0.370771   -0.655195    1.297934
C      -1.842815   -0.713556    1.609313
C      -2.877234   -0.716910    0.756343
C      -2.891179   -0.709356   -0.704525
C      -1.873247   -0.696920   -1.577026
C      -0.395515   -0.641398   -1.293316
H      -0.226933    2.059419    0.924841
H      -0.244329    2.069115   -0.894138
H       1.927788    0.757783   -0.921911
H       1.945183    0.748094    0.897091
H       0.040985   -1.676915    1.305205
H       0.130124   -0.144795    2.130095
H      -2.079618   -0.764159    2.670339
H      -3.868414   -0.759784    1.203456
H      -3.890714   -0.747834   -1.133050
H      -2.130295   -0.736614   -2.633797
H       0.089254   -0.121954   -2.129426
H       0.016148   -1.662848   -1.319452
