17

C      -0.076080    1.575723   -0.172545
C       0.006126    0.081591    0.010726
O      -1.142917   -0.632421   -0.378750
C       1.264756   -0.716364   -0.184742
O       2.424399    0.000202    0.258548
C       1.952347   -0.050037    1.619092
C       1.966086    1.240463    2.401183
O       2.339347    2.309669    1.997614
C       0.614002   -0.660898    1.190526
H       0.881051    2.056412    0.031583
H      -0.350866    1.800432   -1.210937
H      -0.842145    2.007920    0.478614
H      -1.273298   -0.481784   -1.322027
H       1.396850   -1.526673   -0.892637
H       2.537278   -0.783739    2.198261
H       1.591809    1.103286    3.443933
H       0.051331   -1.411260    1.727462
