16

O       0.202302    0.106438   -0.606810
C       0.289774    1.294179   -0.602930
O       1.053175    1.959109    0.299968
C       1.095043    3.373841    0.214926
C       1.636540    4.003252    1.515454
N       2.934604    4.270104    0.847251
C       2.370732    3.955374   -0.478869
C       3.185545    2.983344   -1.311424
O       2.755424    2.459122   -2.306249
H      -0.237123    1.970696   -1.300849
H       0.143774    3.759746   -0.158742
H       1.074417    4.895460    1.816633
H       1.704022    3.315056    2.362922
H       3.295477    5.209615    0.959899
H       2.114051    4.817668   -1.111280
H       4.204404    2.781122   -0.915275
