23

C      -0.011131    1.528021    0.044460
C      -0.035201    0.001894   -0.043710
C      -1.474401   -0.516098    0.105376
C       0.632802   -0.472072   -1.348037
C       0.740088   -2.003679   -1.428631
C       1.152725   -2.625439   -0.105683
C       2.419398   -2.229312    0.623157
C       1.075764   -1.791539    1.148720
O       0.768120   -0.428812    1.072234
H       1.014677    1.898481   -0.035089
H      -0.606936    1.972500   -0.758669
H      -0.419149    1.858679    1.003860
H      -2.099615   -0.176407   -0.726996
H      -1.512129   -1.607811    0.133399
H      -1.908472   -0.139897    1.036298
H       0.076426   -0.092441   -2.212085
H       1.630203   -0.019015   -1.390388
H      -0.235304   -2.416726   -1.711738
H       1.434776   -2.290634   -2.227029
H       0.863808   -3.666676    0.007418
H       2.969341   -3.000152    1.152215
H       3.035032   -1.445543    0.194727
H       0.699555   -2.252917    2.059329
