23

C       0.177223    1.508756    0.144342
C      -0.096062    0.019991   -0.099650
C       0.639759   -0.566006   -1.320962
C       0.111446    0.077322   -2.607544
O       2.079213   -0.322797   -1.205437
C       2.626551   -1.652091   -1.194995
C       1.868562   -2.373610   -2.333604
C       0.675872   -2.117266   -1.351656
C       1.711026   -2.424368   -0.217258
H       1.253271    1.688778    0.213344
H      -0.221177    2.139848   -0.655527
H      -0.287016    1.834851    1.080094
H       0.185067   -0.535907    0.798211
H      -1.172251   -0.146080   -0.239338
H       0.357287    1.141903   -2.626806
H       0.540769   -0.373428   -3.502975
H      -0.978043   -0.020882   -2.664449
H       3.711398   -1.599648   -1.112831
H       1.868429   -1.907091   -3.318873
H       2.118556   -3.432888   -2.412597
H      -0.279046   -2.636021   -1.435503
H       1.949682   -3.487331   -0.154254
H       1.564959   -2.007011    0.779080
