14

C      -0.176846    1.348404   -0.050542
C      -0.208498   -0.142041   -0.245843
O       0.249522   -0.758049   -1.169516
O      -0.848638   -0.746327    0.801626
C      -1.011073   -2.141575    0.677883
C      -2.169466   -2.485526   -0.247315
O      -2.849908   -1.683625   -0.825730
C      -2.407120   -3.938556   -0.376858
N      -2.575455   -5.079830   -0.453351
H       0.454160    1.800752   -0.814165
H      -1.194337    1.742449   -0.132581
H       0.191716    1.596088    0.947886
H      -0.106249   -2.624768    0.291296
H      -1.222376   -2.535612    1.677371
