15

O       0.186420    0.657143    0.785425
C      -0.196497    0.205329   -0.497370
C      -1.543038   -0.497008   -0.481814
C      -1.783927   -1.702264   -1.353828
C      -1.600992   -1.873207    0.145368
O      -0.381132   -2.348227    0.641431
C      -2.753736   -2.235792    0.940855
N      -3.667023   -2.553751    1.575551
H       0.337936   -0.129821    1.321356
H      -0.262794    1.094193   -1.133177
H       0.560276   -0.459043   -0.935454
H      -2.393796    0.142656   -0.271814
H      -2.769107   -1.869600   -1.772746
H      -0.954490   -2.050625   -1.960672
H      -0.364186   -3.309275    0.567187
