20

C      -0.023038    1.590037    0.040254
C      -0.004240    0.060989    0.070221
O      -1.316183   -0.479882    0.208643
C       0.686292   -0.514302   -1.170463
C       0.694548   -2.062674   -1.345146
N      -0.068666   -1.865665   -2.582926
C      -0.723527   -2.793984   -3.467209
C      -0.198821   -0.511770   -2.442284
O      -0.835337    0.312713   -3.056025
H       0.992985    1.997613    0.059356
H      -0.510354    1.944701   -0.874257
H      -0.567392    1.974648    0.906874
H       0.530782   -0.282293    0.964233
H      -1.864235   -0.077780   -0.476673
H       1.664312   -0.051193   -1.326501
H       1.673598   -2.530745   -1.490561
H       0.129499   -2.593588   -0.571926
H      -1.420569   -3.443870   -2.923057
H      -1.284887   -2.213242   -4.203122
H       0.001768   -3.426045   -3.992666
