17

C       0.160350    1.549633   -0.159490
C      -0.077379    0.049907    0.088936
C       0.555469   -0.452334    1.339812
C       0.080082   -0.974626    2.498989
C       1.222581   -1.258550    3.329036
C       1.247778   -1.832515    4.674328
O       2.253908   -2.044661    5.315209
C       2.312349   -0.878324    2.594868
O       1.930018   -0.392547    1.399351
H       1.229716    1.767183   -0.226893
H      -0.311019    1.863305   -1.095316
H      -0.256278    2.151624    0.653516
H      -1.150115   -0.157611    0.153102
H       0.302389   -0.523998   -0.766204
H      -0.957209   -1.144339    2.744292
H       0.243682   -2.072260    5.090186
H       3.370103   -0.900604    2.797139
