17

C       0.020094    1.428366   -0.042094
C      -0.012648   -0.058666   -0.001063
O       0.892208   -0.808178   -0.808262
C       0.104247   -1.985123   -0.469266
C       0.455579   -2.237338    1.015475
C      -0.288332   -0.921653    1.283762
C      -0.699464   -0.363238    2.519511
C      -1.042034    0.120731    3.568492
C      -1.095941   -1.076284   -0.025904
H       1.014024    1.792726    0.237383
H      -0.214068    1.796743   -1.045370
H      -0.704426    1.839229    0.665574
H       0.120629   -2.759643   -1.231672
H      -0.092560   -3.087070    1.429325
H       1.519339   -2.300111    1.261974
H      -1.343847    0.540311    4.495733
H      -2.160184   -1.051569   -0.215130
