15

N       0.017863    1.204699    0.664864
C       0.028313    0.109702    0.018828
O       1.211629   -0.530256   -0.261997
C       1.329434   -1.229240   -1.496742
C       0.799598   -2.656037   -1.449850
O       1.460147   -3.619967   -1.767601
N      -0.524760   -2.786946   -1.072897
C      -1.443241   -1.798215   -0.756087
C      -1.228667   -0.535451   -0.350572
H       0.976461    1.504086    0.852660
H       0.824968   -0.680863   -2.303861
H       2.394195   -1.292736   -1.719909
H      -0.866419   -3.734925   -1.150790
H      -2.468580   -2.137179   -0.863246
H      -2.099667    0.078893   -0.163216
