16

O      -0.182476    1.457197   -0.508892
C       0.024931    0.150787    0.012678
C      -1.329091   -0.510337    0.090667
C      -1.918608   -1.242029   -1.085185
C      -1.523240   -2.007319    0.153226
C      -0.385009   -2.984112    0.126781
F       0.492030   -2.752285   -0.868302
F       0.313059   -2.964345    1.276897
F      -0.838675   -4.237951   -0.033847
H       0.665008    1.911854   -0.515245
H       0.701791   -0.432870   -0.623590
H       0.470500    0.191666    1.019203
H      -2.030388    0.052451    0.700196
H      -2.974889   -1.135607   -1.301369
H      -1.285939   -1.364146   -1.956869
H      -2.314350   -2.365122    0.803299
