18

C       0.090447    1.504700   -0.080525
C      -0.025306    0.016170   -0.009631
C      -1.139906   -0.781347    0.029097
C      -2.507237   -0.364159    0.185722
O      -3.458985   -1.122770    0.271416
C      -0.710620   -2.211746   -0.026541
C       0.062277   -2.642102   -1.258441
C       0.811700   -2.146955   -0.045835
N       1.117367   -0.740449    0.035367
H       0.743471    1.877699    0.716370
H       0.528301    1.816994   -1.036303
H      -0.882768    1.985507    0.015252
H      -2.664297    0.737694    0.234061
H      -1.264559   -2.951997    0.536355
H       0.120047   -3.707638   -1.450039
H       0.021988   -2.015330   -2.143071
H       1.460520   -2.808340    0.516925
H       2.008977   -0.373617   -0.257160
