20

C       0.098760    1.471265    0.018906
N       1.361726    0.718845    0.060037
C       0.082510   -0.014459    0.039201
C      -0.237854   -0.771034    1.283408
O      -1.553178   -1.353806    1.352403
C      -0.436136   -2.224134    1.303934
C      -0.160551   -3.258185    0.207041
C       0.588026   -4.100998    1.284294
C      -0.054758   -3.222189    2.399939
H      -0.130419    2.024827    0.925523
H      -0.190128    1.970144   -0.902251
H       1.790628    0.698185   -0.860785
H      -0.212152   -0.512315   -0.881887
H       0.094716   -0.284549    2.202099
H      -1.085764   -3.735773   -0.128953
H       0.407677   -2.935133   -0.668778
H       0.363807   -5.168347    1.311930
H       1.670967   -3.970870    1.228906
H       0.590423   -2.866346    3.206582
H      -0.943835   -3.687712    2.836005
