20

C      -0.096751    1.575670   -0.091822
C      -0.024869    0.047634   -0.039708
C       0.754276   -0.556284   -1.211392
C       0.782282   -2.092339   -1.190287
O      -0.522363   -2.647481   -1.210621
C       1.597560   -2.640100   -2.353450
C       1.370614   -3.985118   -2.887586
O       0.844710   -2.828110   -3.560945
H       0.903144    2.024015   -0.070857
H      -0.591026    1.917998   -1.007969
H      -0.658267    1.976789    0.757739
H       0.443009   -0.266896    0.903063
H      -1.033526   -0.378300   -0.035381
H       0.313576   -0.229056   -2.163691
H       1.788154   -0.183478   -1.205369
H       1.241326   -2.429984   -0.250903
H      -0.805761   -2.602550   -2.134987
H       2.575041   -2.180649   -2.503974
H       2.171433   -4.498282   -3.416314
H       0.623204   -4.618797   -2.417285
