21

C       0.016879    1.482496    0.167509
N      -0.054906    0.033985   -0.030461
C      -1.400375   -0.533124   -0.044616
C      -2.330935   -0.030175   -1.152860
C      -1.370504   -2.071762    0.155267
O      -1.983938   -1.932942    1.471802
C      -2.029234   -0.556560    1.346381
N      -2.460539    0.320384    2.127227
C      -3.005107   -0.082317    3.418027
H       1.067321    1.770859    0.269157
H      -0.423109    2.082587   -0.645282
H      -0.502955    1.738352    1.093601
H       0.411256   -0.215829   -0.898189
H      -1.885908   -0.213668   -2.137858
H      -3.301638   -0.534257   -1.116860
H      -2.510733    1.042719   -1.048750
H      -2.006225   -2.661995   -0.509981
H      -0.369694   -2.501408    0.233174
H      -4.029214    0.296274    3.507190
H      -3.014310   -1.165948    3.581866
H      -2.419727    0.388005    4.215755
