14

N      -0.243920    1.616715   -0.004620
C       0.043349    0.180432   -0.063119
C      -1.206047   -0.565382    0.171531
N      -2.181451   -1.163339    0.329616
C       0.709917   -0.298747   -1.351157
C       2.192299   -0.298204   -1.431661
N       1.443666   -1.565587   -1.398444
H       0.610760    2.128022   -0.206548
H      -0.913350    1.864822   -0.727896
H       0.716166   -0.056026    0.773888
H       0.129090   -0.091140   -2.248201
H       2.688361   -0.082796   -2.373292
H       2.749199    0.004979   -0.547325
H       1.492495   -1.986235   -0.472731
