18

C      -0.020703    1.423070   -0.010433
N      -0.033644   -0.018839    0.051084
C      -1.211429   -0.798763   -0.298633
C      -0.821916   -2.254064    0.055789
C       0.692498   -2.214416    0.125739
C       1.583624   -3.281081    0.581734
O       1.465097   -2.975764   -0.809425
C       1.099498   -0.757171    0.253300
O       2.213303   -0.331183    0.479457
H       0.983463    1.756441    0.257247
H      -0.261225    1.780010   -1.020292
H      -0.747661    1.852903    0.688897
H      -2.083194   -0.453067    0.268462
H      -1.449212   -0.685422   -1.365999
H      -1.241464   -2.530241    1.027596
H      -1.169365   -2.975829   -0.685022
H       2.533207   -3.004428    1.035375
H       1.156404   -4.234523    0.890826
