16

O      -0.140556    0.080921    0.372765
C      -0.064366    1.254046    0.136029
N      -1.007793    2.216749   -0.161197
C      -0.091706    3.363929   -0.132072
C       0.004802    4.198138    1.135577
C      -0.129199    3.467775    2.463252
C       1.226798    3.687069    1.866603
O       1.841520    2.642994    1.148588
C       1.074930    2.327544    0.014580
H      -2.016331    2.177658   -0.115910
H      -0.122255    3.976458   -1.035052
H      -0.224532    5.255045    1.080500
H      -0.394792    4.067543    3.327168
H      -0.541014    2.464836    2.467538
H       1.954576    4.327771    2.350973
H       1.734028    2.164558   -0.841816
