25

C      -0.107639    1.538397   -0.147786
C      -0.015735    0.014464   -0.031403
C       0.735038   -0.443249    1.223203
C       0.828787   -1.963864    1.343330
C       1.571908   -2.444916    2.584817
O       2.036656   -1.671556    3.392174
C       1.696998   -3.955273    2.752245
C       2.445828   -4.382409    4.014618
C       2.554755   -5.902861    4.151714
H       0.888826    1.992007   -0.187723
H      -0.647685    1.839295   -1.050962
H      -0.630578    1.969165    0.713184
H      -1.027055   -0.414416   -0.028899
H       0.480927   -0.391757   -0.923042
H       1.746429   -0.020407    1.228709
H       0.245727   -0.042704    2.118661
H      -0.172394   -2.418991    1.351473
H       1.325605   -2.397018    0.462938
H       0.684152   -4.383563    2.733653
H       2.186184   -4.356120    1.852368
H       3.443573   -3.930893    4.006179
H       1.939710   -3.959183    4.888827
H       1.565412   -6.372422    4.196599
H       3.089266   -6.343838    3.302515
H       3.094380   -6.179659    5.062592
