20

C      -0.015592    1.631955   -0.325886
C       0.045031    0.126308   -0.125181
C       1.096753   -0.682405   -0.902072
N       2.418052   -0.252416   -0.382333
C       1.629007   -1.279398    0.349708
C       0.643535   -0.475000    1.201258
C       1.083978    0.328518    2.435933
C       0.113150   -0.588947    3.202821
O      -0.288218   -1.249995    1.981100
H       0.980686    2.072303   -0.231647
H      -0.404256    1.878813   -1.320122
H      -0.675626    2.103636    0.410346
H      -0.940876   -0.335308   -0.243135
H       1.005155   -1.113680   -1.891681
H       3.131680   -0.749227   -0.914873
H       2.024808   -2.266847    0.554233
H       2.141420    0.240670    2.688699
H       0.807481    1.384104    2.419620
H       0.576724   -1.287950    3.909694
H      -0.734140   -0.097268    3.694460
