17

O      -0.163473    1.443560   -0.300572
C       0.002732    0.092995   -0.065498
C       0.709914   -0.877148   -1.019413
C      -0.396166   -1.939544   -0.722035
C      -1.094526   -0.951275    0.220480
C      -0.143321   -0.491395    1.295864
O       0.877338   -1.312431    1.840789
C       0.474779   -2.332955    2.629647
O       1.244711   -3.064205    3.175183
H       0.604791    1.912773    0.045258
H       0.667435   -0.517671   -2.048934
H       1.738843   -1.142040   -0.764292
H      -0.999387   -2.170766   -1.601181
H      -0.059547   -2.876284   -0.270411
H      -2.164767   -0.828688    0.336929
H      -0.574295    0.193374    2.021825
H      -0.626442   -2.405854    2.704747
