19

C       0.126004    1.605505    0.149076
C       0.163108    0.115078    0.010074
C      -0.903471   -0.839364    0.467892
C       0.510299   -1.016853    0.975844
C       1.376105   -1.642186   -0.121440
N       0.992373   -0.523318   -1.017435
C       0.616895   -0.582164   -2.345417
N       1.250174   -1.582723   -3.070287
O      -0.197939    0.178544   -2.835121
H       1.137994    2.021891    0.186199
H      -0.394838    2.045129   -0.706231
H      -0.402202    1.892999    1.063109
H      -1.600897   -0.435766    1.195482
H      -1.337817   -1.556567   -0.223761
H       0.776480   -0.960791    2.022362
H       2.448545   -1.644800    0.102971
H       1.075293   -2.634525   -0.478009
H       2.163562   -1.879826   -2.761817
H       1.168695   -1.453591   -4.067517
