18

O       0.460213    0.671315   -0.840635
C      -0.036383   -0.269667    0.056484
C      -0.070243    0.052293    1.581095
C      -1.434493   -0.636494    1.637240
C      -1.808297   -1.784119    2.491556
N      -2.507464   -0.485853    2.599688
C      -1.598361   -0.536807    0.101991
C      -2.348966    0.619705   -0.343799
C      -2.891074    1.624058   -0.727676
H      -0.189158    1.385415   -0.902927
H       0.492625   -1.206453   -0.135083
H       0.736938   -0.341309    2.203345
H      -0.155601    1.133119    1.738700
H      -2.414960   -2.593527    2.093297
H      -1.117414   -2.078122    3.278444
H      -2.182941    0.029512    3.414543
H      -1.940579   -1.443370   -0.404728
H      -3.420449    2.485159   -1.053894
