17

C       0.129745    1.453396   -0.046233
C       1.347118    0.616725   -0.022842
N      -0.030335    0.002244    0.137715
C       0.132607   -0.594379   -1.233063
C       1.585452   -0.052508   -1.378861
C       2.006520    0.806135   -2.596041
O       3.214429    0.175860   -3.085398
C       3.404947   -0.888263   -2.273344
N       2.595529   -1.117744   -1.324730
H      -0.100771    2.024081    0.848048
H      -0.208811    1.913324   -0.973766
H       2.070277    0.629859    0.785791
H       0.112688   -1.683165   -1.179180
H      -0.605982   -0.239472   -1.961728
H       1.269552    0.798937   -3.404665
H       2.238704    1.841480   -2.330845
H       4.277611   -1.485276   -2.513706
