14

O      -0.144737    0.046426   -0.501871
C      -0.065146    1.207073   -0.165646
N       1.095480    1.843024    0.169697
C       2.364522    1.181371    0.174638
C       3.524074    1.847857   -0.582535
O       3.741466    3.095635    0.072486
C       4.390321    1.919331    0.619442
C       3.288124    1.270995    1.453910
O       3.183128    0.895318    2.578815
H      -0.938388    1.882694   -0.094189
H       1.070312    2.817935    0.425519
H       2.198394    0.132861   -0.089897
H       3.818388    1.754732   -1.620384
H       5.467390    1.940550    0.722266
