11

C      -0.020106    1.532703    0.046627
C      -0.002607    0.043196   -0.039402
C      -0.066661   -0.839832   -1.093751
N      -0.010650   -2.116585   -0.619344
N       0.085455   -2.083944    0.676347
N       0.091079   -0.781558    1.034358
H       0.897724    1.923806    0.499420
H      -0.108106    1.961549   -0.953597
H      -0.865411    1.894854    0.642153
H      -0.148756   -0.629667   -2.148072
H       0.160004   -0.542921    2.010926
