18

C       0.012102    1.639079    0.016854
N       1.503256    1.391183    0.029086
C       1.170517    0.141734    0.860166
C      -0.091495    0.096190   -0.030495
O      -1.294200   -0.610137   -0.016475
C      -1.622333   -0.794210   -1.413605
O      -0.620685   -0.174737   -2.210412
C       0.529266   -0.240459   -1.374102
C       1.642390    0.826363   -1.368777
H      -0.315397    2.066041    0.966914
H      -0.358402    2.226781   -0.825893
H       1.895898   -0.674093    0.796501
H       1.006798    0.437532    1.896969
H      -1.670240   -1.877075   -1.603365
H      -2.582244   -0.321838   -1.644599
H       0.934370   -1.263476   -1.393416
H       1.498970    1.626065   -2.098039
H       2.635858    0.394374   -1.504967
