20

C      -0.061439    1.581317    0.051954
C      -0.038042    0.046924   -0.001159
C       0.737899   -0.465070    1.220468
O       1.033830   -1.851968    1.035740
C      -1.473068   -0.520227   -0.006703
O      -2.294953   -0.024758    1.042858
C       0.659517   -0.438329   -1.297812
O       2.073483   -0.340065   -1.247588
H       0.949424    1.981284   -0.072115
H      -0.687306    1.983826   -0.751456
H      -0.474304    1.941339    0.998289
H       1.663878    0.114169    1.330425
H       0.141038   -0.307112    2.131748
H       1.478252   -2.175157    1.824970
H      -1.970742   -0.224649   -0.938026
H      -1.428721   -1.617698    0.011553
H      -2.088483   -0.517614    1.841603
H       0.352312   -1.469842   -1.519817
H       0.334688    0.187993   -2.135709
H       2.359071   -1.052825   -0.663923
