17

O       0.222038    1.160158   -0.360732
C       0.107934   -0.140059    0.158433
C      -0.080713   -0.309215    1.683226
O      -1.328732   -1.008507    1.469252
C      -1.311254   -0.733397    0.069082
C      -2.495009    0.056037   -0.560514
N      -2.758513   -1.139736   -1.385055
C      -1.647428   -1.842673   -0.934196
N      -1.049693   -2.922066   -1.211757
H       1.152925    1.359590   -0.494385
H       0.852533   -0.823041   -0.263706
H       0.647894   -0.928154    2.217026
H      -0.225873    0.643053    2.207976
H      -3.297859    0.296583    0.141458
H      -2.185919    0.945620   -1.116427
H      -3.147190   -1.158805   -2.316629
H      -1.499138   -3.423477   -1.980211
