21

C      -0.042707    1.536737   -0.043741
C       0.060860    0.022244    0.051434
C      -1.180897   -0.680658   -0.482754
C       1.345898   -0.745519   -0.222037
C       2.570069    0.014440    0.286542
C       1.970292   -0.043574    1.737735
O       1.778044    1.136859    2.486144
C       0.710049   -0.702492    1.195679
O      -0.025797   -1.627684    1.914973
H       0.786274    2.051605    0.440445
H      -0.090371    1.850543   -1.093601
H      -0.961849    1.879052    0.444845
H      -1.367331   -0.376243   -1.518754
H      -1.083370   -1.767750   -0.452862
H      -2.062100   -0.413345    0.109788
H       1.366521   -1.558754   -0.937806
H       3.508771   -0.537223    0.193313
H       2.711777    1.022289   -0.113485
H       2.529705   -0.786192    2.329692
H       2.632639    1.425249    2.822461
H       0.576713   -2.298783    2.254362
