15

O       0.020859    0.035769   -0.282274
C      -0.014177    1.208913   -0.049121
C      -1.253728    2.073155    0.182903
C      -0.723274    3.443227    0.629270
C       0.650310    3.563493   -0.065077
C       1.247511    2.140171    0.029354
C       1.935330    1.913491    1.296521
N       2.458462    1.750075    2.314783
H      -1.783784    2.139560   -0.776170
H      -1.931124    1.583396    0.886213
H      -1.391146    4.266482    0.368283
H      -0.588507    3.460024    1.715892
H       0.519776    3.813979   -1.123332
H       1.293929    4.322229    0.382495
H       1.926713    1.886622   -0.788841
