16

N       0.013132   -1.139734    0.052456
C      -0.028686    0.018021    0.041130
C      -0.035136    1.438881    0.033213
C      -1.120187    2.213834   -0.104834
C      -0.750877    3.649294   -0.094189
C      -1.465864    4.664362   -0.889977
O      -1.649256    4.578952    0.522097
C       0.735410    3.711099    0.272180
C       1.245340    2.252649    0.151141
H      -2.139585    1.868565   -0.220697
H      -0.916319    5.536926   -1.242240
H      -2.326901    4.381362   -1.494755
H       1.294444    4.403563   -0.360283
H       0.816890    4.066461    1.303363
H       1.848128    1.936914    1.007604
H       1.866678    2.106856   -0.739748
