19

C      -0.191676    1.540010   -0.047428
C       0.019537    0.024431   -0.003811
C       0.689722   -0.518337   -1.269647
C       0.900630   -2.045216   -1.215216
C       1.554843   -2.579133   -2.441318
N       2.768885   -3.027024   -2.588230
C       2.793911   -3.341793   -3.924284
N       1.687705   -3.113109   -4.575162
O       0.845698   -2.597630   -3.580268
H       0.761060    2.069723   -0.155581
H      -0.827440    1.827137   -0.892023
H      -0.670887    1.900131    0.867903
H       0.630434   -0.237459    0.870022
H      -0.946195   -0.478341    0.138187
H       0.081861   -0.271442   -2.148173
H       1.660586   -0.028641   -1.414587
H       1.533410   -2.313826   -0.365554
H      -0.066663   -2.543883   -1.083751
H       3.659739   -3.753801   -4.422173
