17

O       0.084934    1.395153    0.223832
C       0.047042   -0.006975    0.011114
C      -1.342007   -0.530824   -0.165260
N      -2.227334   -0.830093    1.000403
C      -1.929307   -1.888967   -0.002415
C      -2.915299   -1.672981   -1.148908
C      -2.354650   -0.202611   -1.285200
O      -3.228660    0.860801   -1.039469
H      -0.605371    1.617282    0.857127
H       0.634391   -0.183890   -0.897230
H       0.543863   -0.558435    0.829533
H      -1.625415   -0.996721    1.807054
H      -1.447466   -2.808377    0.307603
H      -2.702493   -2.285923   -2.027796
H      -3.973575   -1.751889   -0.888075
H      -1.881075   -0.019406   -2.252115
H      -3.538346    0.730535   -0.132454
