13

O      -0.002097   -0.017573   -0.334038
C       0.013663    1.085635    0.157594
C       1.211695    1.959643    0.127108
C       1.185351    3.451736   -0.176383
O      -0.051820    4.131755   -0.046546
C      -0.363859    4.041806    1.274705
N       0.447103    3.447117    2.053489
C       1.536495    3.000232    1.214386
H      -0.878586    1.493805    0.671749
H       2.084266    1.464262   -0.286372
H       1.826929    3.876426   -0.936550
H      -1.306693    4.495459    1.553055
H       2.524707    2.991915    1.656194
