23

O       0.072662    1.409676    0.087229
C       0.043384   -0.003425    0.227515
C      -1.310513   -0.496385   -0.272216
C      -1.445893   -2.000923   -0.173039
C      -1.914767   -2.660572    1.105842
C      -2.788282   -2.699957   -0.126578
C      -4.090977   -1.964802   -0.182529
C      -4.919800   -1.983059   -1.444666
C      -5.388622   -2.735696   -0.223746
H       0.922463    1.725780    0.407024
H       0.849727   -0.478526   -0.355726
H       0.181648   -0.305599    1.277927
H      -2.090432    0.005206    0.310175
H      -1.437441   -0.167019   -1.310955
H      -0.674306   -2.542170   -0.717394
H      -1.433246   -3.572816    1.441308
H      -2.231148   -2.005472    1.912801
H      -2.819713   -3.655771   -0.645874
H      -4.118613   -1.039216    0.384439
H      -5.448122   -1.080287   -1.730937
H      -4.545890   -2.561777   -2.283165
H      -5.330268   -3.819304   -0.242394
H      -6.238296   -2.348484    0.327872
