18

C       0.026537    1.490620   -0.000486
O       1.206476    0.681617    0.006864
C      -0.076948    0.028161    0.005866
C      -0.392820   -0.731244    1.276589
C       0.367473   -2.068215    1.293675
C       0.250254   -2.791689   -0.023415
C      -0.107351   -2.194939   -1.159690
C      -0.418564   -0.723017   -1.269091
H      -0.164013    2.051347    0.914551
H      -0.154930    2.042627   -0.922911
H      -0.133600   -0.124944    2.149380
H      -1.472437   -0.925172    1.314023
H       1.427290   -1.882722    1.518434
H      -0.004885   -2.702255    2.106986
H       0.483197   -3.853766   -0.025630
H      -0.181391   -2.774327   -2.076756
H      -1.483451   -0.584399   -1.509817
H       0.141736   -0.274835   -2.098312
