20

C       0.218200    1.633773    0.147803
C       0.108284    0.132596    0.138382
O      -1.250997   -0.331302   -0.060389
C      -1.148273   -1.251901    1.052299
C       0.306881   -0.845107    1.342631
C       1.381351   -1.628950    0.541992
C       1.122189   -0.710853   -0.662586
C       1.051100   -1.010145   -2.105437
N       2.176497   -0.227725   -1.551651
H       1.239115    1.952013    0.382289
H      -0.053822    2.043958   -0.832562
H      -0.462438    2.064340    0.887507
H      -1.868859   -0.999637    1.839815
H      -1.304340   -2.294653    0.747059
H       0.551485   -0.521883    2.353574
H       2.391125   -1.502623    0.941354
H       1.189726   -2.696492    0.398647
H       1.320774   -1.998384   -2.468838
H       0.289025   -0.501683   -2.690889
H       2.042184    0.761269   -1.752829
