22

C      -0.186636    1.525429   -0.040653
C      -0.009389    0.014288    0.074883
C       1.063100   -0.586069   -0.881850
C       2.065415   -0.638204    0.299054
C       0.863380   -0.438539    1.283855
C       2.936581   -1.840842    0.500985
C       3.840098   -1.884340    1.706231
N       2.861530   -2.781151   -0.361596
O       3.722325   -3.847652   -0.040670
H       0.775838    2.048337    0.010208
H      -0.657144    1.794467   -0.992853
H      -0.817042    1.913840    0.767018
H      -0.988347   -0.470907    0.021039
H       0.810212   -1.588979   -1.228428
H       1.351034    0.020643   -1.744581
H       2.704226    0.253396    0.317738
H       0.996249    0.280494    2.097156
H       0.526968   -1.389555    1.705653
H       3.642726   -2.780566    2.302256
H       4.888114   -1.944949    1.394141
H       3.707146   -1.000589    2.333542
H       3.558766   -4.460669   -0.764691
