17

C      -0.023388    1.557261    0.015178
C      -0.116380    0.068614   -0.151637
C       0.713660   -0.667599   -1.120929
C       0.166605   -1.853282   -1.434393
C      -1.038487   -2.120307   -0.544860
N      -0.380996   -2.885620    0.555978
C      -0.018813   -1.996381    1.405307
N      -0.468541   -0.673278    1.259088
C      -1.334153   -0.735020    0.071567
H       0.992039    1.859777    0.290870
H      -0.279128    2.059634   -0.924810
H      -0.704239    1.901386    0.795939
H       1.665861   -0.293343   -1.478158
H       0.612076   -2.620256   -2.055256
H      -1.872761   -2.664331   -0.986273
H       0.621858   -2.225141    2.252188
H      -2.333348   -0.315612    0.152167
