18

N      -0.085407    1.341424    0.252459
C       0.071358   -0.025432    0.060191
O       1.158244   -0.559329   -0.049492
N      -1.121499   -0.726726    0.028246
C      -1.103502   -2.158435    0.030700
C      -0.563920   -3.171909    1.075303
N      -1.145553   -4.083464   -0.017369
C      -2.322626   -3.091238   -0.044615
C      -0.477401   -3.110054   -1.006809
H       0.761649    1.855824    0.062606
H      -0.918361    1.773751   -0.118550
H      -1.931177   -0.287355    0.440626
H       0.517647   -3.253038    1.189239
H      -1.086863   -3.254663    2.032331
H      -2.973840   -3.165278    0.831700
H      -2.895438   -3.118206   -0.975833
H      -0.918032   -3.138136   -2.007208
H       0.609795   -3.180878   -1.033457
