18

O       0.256860    1.353286    0.104329
C       0.032675   -0.030617   -0.121346
C      -1.417123   -0.391949    0.032214
C      -2.031863   -0.888191    1.276950
N      -1.894779   -1.842264    0.153592
C      -2.950861   -1.541359   -0.899955
C      -4.309127   -0.961024   -0.483197
O      -3.772035    0.390817   -0.505821
C      -2.504425   -0.083835   -1.017337
H      -0.078409    1.563297    0.982555
H       0.369478   -0.219039   -1.146811
H       0.636122   -0.668977    0.542621
H      -1.364724   -1.142018    2.096060
H      -3.003801   -0.517589    1.582721
H      -2.910456   -2.278819   -1.698808
H      -5.090653   -1.087895   -1.242669
H      -4.710663   -1.243939    0.496502
H      -2.185020    0.426161   -1.927806
