19

C      -0.511327    1.385813   -0.070207
C       0.052613   -0.028182   -0.029524
C       1.346806   -0.296438   -0.869394
C       2.119780   -0.593637    0.440444
N       2.585116    0.656291    1.110438
C       1.499440    0.571034    2.125164
C       0.788493   -0.497498    1.272305
C       3.023628   -1.722565    0.499271
N       3.754544   -2.618428    0.552516
H       0.263153    2.131329    0.133449
H      -0.923215    1.600848   -1.061998
H      -1.317651    1.517509    0.659644
H      -0.737285   -0.738755   -0.288045
H       1.263563   -1.164403   -1.527437
H       1.751306    0.550862   -1.426469
H       3.528151    0.609132    1.478792
H       1.821105    0.164638    3.092199
H       0.977952    1.517641    2.298162
H       0.355893   -1.351112    1.790222
