17

C       0.092513    1.464899   -0.070599
C      -0.089978   -0.055677    0.044322
C      -1.579342   -0.430470    0.040671
O       0.542913   -0.680617   -1.093183
C       1.575163   -1.567433   -0.679496
C       1.584768   -1.487697    0.821128
C       0.649795   -0.638877    1.227009
H       1.155011    1.721426   -0.085438
H      -0.365508    1.828233   -0.995498
H      -0.378683    1.981595    0.772251
H      -2.051056   -0.081948   -0.883047
H      -1.699760   -1.515096    0.104014
H      -2.101480    0.027840    0.887266
H       1.367054   -2.586529   -1.043516
H       2.536985   -1.260994   -1.121486
H       2.267982   -2.054082    1.441718
H       0.412854   -0.369785    2.249002
