23

C      -0.156434    1.540159    0.068435
C      -0.009013    0.021006   -0.014987
C      -1.342127   -0.616784   -0.411678
C       1.172998   -0.543289   -0.890119
C       1.734199   -1.261617    0.341697
C       2.058449   -0.254038    1.406512
C       0.620218   -0.684624    1.217871
C      -0.153222   -1.302954    2.343993
O      -0.786772   -0.323255    3.163890
H       0.786705    2.034061    0.320305
H      -0.498257    1.953165   -0.887760
H      -0.891629    1.809680    0.834502
H      -1.666722   -0.245508   -1.390089
H      -1.261858   -1.707149   -0.479229
H      -2.126078   -0.379735    0.315800
H       0.821526   -1.216948   -1.675234
H       1.840322    0.198965   -1.341664
H       2.155426   -2.260043    0.354416
H       2.540439   -0.652877    2.295016
H       2.398339    0.741191    1.131658
H      -0.968201   -1.930932    1.970488
H       0.511791   -1.953496    2.935883
H      -0.102932    0.294913    3.443565
