25

C       0.320890    2.096403    0.261920
C       0.207174    0.569557    0.330279
C       0.543877   -0.169170   -0.982400
C       2.018395    0.033462   -1.388402
C       2.429681   -0.641332   -2.701289
C       0.203576   -1.647224   -0.853114
C      -1.241693   -2.109882   -0.793867
C      -0.384372   -2.435918   -1.989609
O      -0.604212   -1.756470   -3.194358
H       1.349453    2.428646    0.093371
H      -0.295272    2.501666   -0.549067
H      -0.019878    2.553771    1.196460
H       0.855394    0.188976    1.132342
H      -0.816164    0.304569    0.621288
H      -0.086479    0.245389   -1.779800
H       2.214758    1.108381   -1.470045
H       2.661020   -0.328028   -0.572238
H       3.456126   -0.370524   -2.969629
H       2.381931   -1.731584   -2.628759
H       1.770935   -0.344607   -3.522540
H       0.894731   -2.204229   -0.222656
H      -1.523376   -2.901727   -0.108028
H      -2.001119   -1.348546   -0.945464
H      -0.050998   -3.466907   -2.110728
H      -1.438354   -2.066855   -3.561141
