23

C      -0.126247    1.613610    0.033960
C       0.132349    0.110059   -0.120983
C       0.710224   -0.516597    1.142540
C      -0.143127   -0.732943    2.440272
C      -1.292440   -1.633049    1.950033
C      -0.467252   -2.641262    1.074688
C       0.941604   -2.057292    1.287841
C       0.917511   -1.813434    2.832903
O       2.101028   -1.390350    3.463118
H       0.794915    2.150988    0.286143
H      -0.521299    2.047232   -0.889862
H      -0.850802    1.810573    0.831390
H      -0.798577   -0.387432   -0.412587
H       0.835014   -0.056752   -0.948416
H       1.632120    0.026296    1.387082
H      -0.391624    0.085703    3.117173
H      -1.805829   -2.124686    2.781377
H      -2.045650   -1.088534    1.374651
H      -0.540699   -3.669261    1.441133
H      -0.773286   -2.642721    0.025494
H       1.780124   -2.562814    0.806156
H       0.551113   -2.644682    3.443249
H       2.471599   -0.646315    2.978702
