17

O      -0.171392    0.338429    0.623967
C       0.210426    0.938984   -0.347670
C       1.465462    1.788242   -0.382202
C       1.217162    3.181482   -0.989313
C       2.493790    4.022254   -1.109286
C       2.958161    3.750045   -2.541508
O       4.029328    3.998973   -3.022845
C       1.779410    3.080130   -3.251897
O       0.704903    3.076065   -2.331762
H      -0.349502    0.907219   -1.306239
H       1.860060    1.870292    0.634947
H       2.213786    1.259761   -0.991441
H       0.439960    3.693031   -0.414709
H       2.272802    5.092162   -1.023026
H       3.276410    3.780531   -0.387953
H       1.489409    3.635624   -4.149521
H       2.074154    2.065825   -3.563532
