20

C      -0.188499    1.596599    0.015942
C       0.029118    0.091017    0.022285
C       1.159996   -0.572263   -0.830229
C       2.455181    0.066988   -0.285979
C       2.183402    0.033896    1.178655
C       0.784413   -0.617990    1.193795
C       1.125105   -1.762875    0.183774
C       2.559615   -2.181040    0.440516
N       3.205018   -0.865870    0.589990
H       0.740135    2.144336    0.200479
H      -0.587728    1.928417   -0.949122
H      -0.909662    1.889186    0.787405
H      -0.922770   -0.420262   -0.165903
H       1.072862   -0.712938   -1.907789
H       3.015913    0.829678   -0.810327
H       2.512621    0.768396    1.901968
H       0.317809   -0.804865    2.161202
H       0.360040   -2.520125    0.024701
H       2.687198   -2.766066    1.357730
H       3.012353   -2.726474   -0.394556
