21

C      -0.154132    1.569890    0.185036
C      -0.206387    0.070534    0.353147
C      -1.252145   -0.749768   -0.267496
O       0.063935   -0.706595   -0.821022
C       1.273527    2.102477    0.169845
C       1.417354    3.622798   -0.028212
C       2.702897    3.971060    0.764778
C       3.039768    2.650609    1.501797
O       1.868356    1.852213    1.440605
H      -0.650985    1.843756   -0.752322
H      -0.696432    2.051381    1.008850
H       0.278587   -0.308788    1.252029
H      -1.540678   -1.698060    0.184214
H      -2.026491   -0.269099   -0.865236
H       1.845125    1.572457   -0.611685
H       1.479242    3.895785   -1.084484
H       0.548567    4.135118    0.397277
H       3.522511    4.279525    0.111060
H       2.523033    4.786647    1.468973
H       3.878553    2.135599    1.007160
H       3.297679    2.786686    2.555279
