17

C       0.081427    1.600692   -0.000249
C       0.462935    0.144182   -0.022957
O       1.787739   -0.205255    0.407779
C       0.669386   -0.702887    1.166769
C       0.538938   -0.233217    2.599069
C       1.663448   -0.743197    3.514023
N       2.917276   -0.460969    3.059129
O       1.442474   -1.305825    4.567641
H       0.399009    2.096170    0.919037
H       0.548286    2.122136   -0.842126
H      -1.003828    1.708996   -0.100354
H       0.166581   -0.379389   -0.934111
H       0.515074   -1.775634    1.037783
H       0.532789    0.859674    2.647513
H      -0.399820   -0.596624    3.023115
H       3.057315   -0.131147    2.116596
H       3.697448   -0.833365    3.575499
