18

C      -0.146648    1.595431    0.045905
N       0.152519    0.172281    0.064091
C       1.189922   -0.389855   -0.837265
C       1.816841   -1.139348    0.344493
C       2.235631   -0.175680    1.396904
O       2.850452    1.043037    1.013991
C       3.221586    1.880653    2.003198
O       3.705860    2.951083    1.791290
C       0.762553   -0.438728    1.230931
H       0.738287    2.245020    0.110645
H      -0.685043    1.837283   -0.876894
H      -0.810884    1.828178    0.884883
H       0.759381   -1.044768   -1.601051
H       1.845382    0.347459   -1.315760
H       2.143648   -2.170468    0.332091
H       2.686183   -0.629690    2.277650
H       3.038111    1.463940    3.012065
H       0.150386   -0.811952    2.047432
