18

O      -0.111516    1.464529   -0.033836
C      -0.000054    0.050122   -0.081405
C      -1.391147   -0.537475    0.085551
C      -1.422029   -2.083090    0.017012
C      -2.768626   -2.464669    0.647787
C      -3.055124   -1.356420    1.670520
O      -3.913613   -1.383377    2.513560
C      -2.060524   -0.216048    1.431983
H       0.768411    1.841771   -0.122990
H       0.433021   -0.284889   -1.038247
H       0.653128   -0.326698    0.724222
H      -2.018938   -0.137710   -0.721692
H      -1.299102   -2.459607   -1.001787
H      -0.598725   -2.493384    0.616246
H      -3.576599   -2.435914   -0.095377
H      -2.802946   -3.450601    1.116966
H      -1.323225   -0.249222    2.247384
H      -2.546931    0.759081    1.486313
