19

C      -0.164834   -1.122799   -0.398905
C      -0.053139    0.050992   -0.169603
C       0.044760    1.481731    0.125778
C      -0.780871    1.851210    1.371528
C      -1.072034    3.348469    1.520832
C       0.084816    4.315177    1.483979
C       1.254034    4.224729    0.849667
C       1.801127    3.110560   -0.006582
O       1.418920    1.792431    0.323185
H      -0.252680   -2.159925   -0.609592
H      -0.337374    2.041099   -0.746237
H      -1.733293    1.311577    1.338369
H      -0.225425    1.478019    2.238123
H      -1.783729    3.650072    0.735195
H      -1.616681    3.494749    2.461301
H      -0.106637    5.246059    2.015513
H       1.919780    5.085164    0.904777
H       1.560072    3.320664   -1.066122
H       2.893975    3.110468    0.065827
