15

O      -0.679198    0.331226   -0.996433
C      -0.240959    1.274975   -0.378707
N      -0.659502    1.837245    0.808403
N       0.105394    2.903519    1.228796
C       0.999199    3.046492    0.295916
N       0.848651    2.104336   -0.692301
C       2.035815    4.095132    0.294547
C       1.617457    5.525254    0.427308
N       2.281739    4.837688    1.534671
H      -1.403202    1.488656    1.386616
H       1.402718    1.990339   -1.523360
H       2.926591    3.855825   -0.281657
H       2.204996    6.300568   -0.056554
H       0.550357    5.715985    0.494474
H       1.591166    4.544104    2.224047
