23

C      -0.212030    1.533610   -0.004645
C       0.026027    0.024927    0.011702
C       0.869293   -0.513376   -1.191188
C       2.002930   -1.331816   -0.489639
C       1.224683   -1.920251    0.712442
C       0.824846   -0.527191    1.249602
C       2.189196    0.160855    1.275504
C       2.579021    1.219558    2.254783
C       2.881015   -0.324343    0.236347
H       0.734077    2.083530   -0.036002
H      -0.791393    1.827084   -0.886864
H      -0.769257    1.863037    0.879969
H      -0.949887   -0.474619    0.012820
H       0.267902   -1.154014   -1.844133
H       1.276408    0.294622   -1.805826
H       2.520904   -2.035574   -1.142728
H       0.368415   -2.539506    0.421768
H       1.865187   -2.476496    1.401553
H       0.260273   -0.492197    2.184223
H       2.538257    0.841706    3.284778
H       3.594014    1.582962    2.067981
H       1.898758    2.079447    2.215051
H       3.856992    0.003250   -0.103380
