14

C       0.074249    1.414625   -0.064041
N       0.054133   -0.027085   -0.022863
N       0.113177   -0.791358   -1.174292
C       0.072944   -2.003018   -0.743872
C       0.105850   -3.243945   -1.551865
O      -0.008620   -2.105575    0.610922
C      -0.021919   -0.795556    1.103745
O      -0.087033   -0.498286    2.263861
H       0.998860    1.774953   -0.524190
H      -0.780184    1.796734   -0.630088
H       0.017140    1.765024    0.967546
H       0.967289   -3.861247   -1.277626
H      -0.795953   -3.840560   -1.381186
H       0.171005   -2.981947   -2.608371
