19

C      -0.241371    1.523612   -0.028425
C      -0.198242   -0.016155   -0.048171
C      -1.613823   -0.551213   -0.169377
O      -2.261060   -0.983197    0.747391
C       0.654105   -0.523537   -1.205571
O       1.989128   -0.112072   -1.050935
C       2.752117   -1.061233   -1.781681
C       1.979731   -2.374533   -1.558791
O       0.662424   -1.941647   -1.224577
H       0.773452    1.924033    0.023758
H      -0.717595    1.920355   -0.932321
H      -0.807001    1.878439    0.836682
H       0.227971   -0.397471    0.883841
H      -2.050414   -0.472588   -1.193467
H       0.258455   -0.153602   -2.172825
H       2.786307   -0.794753   -2.848457
H       3.768249   -1.070585   -1.383161
H       1.957468   -3.005055   -2.454434
H       2.387376   -2.958081   -0.725388
