18

N      -0.066519    1.326941   -0.821123
C       0.037210    0.109972   -0.504024
O       1.207822   -0.583309   -0.575518
C       1.198342   -1.940987   -0.113666
C       0.006965   -2.634873   -0.711280
C       0.108944   -3.163084   -2.120657
C      -0.000080   -4.117304   -0.956034
C      -1.248733   -1.940525   -0.239201
O      -1.036203   -0.538884   -0.002951
H       0.850671    1.687566   -1.077784
H       2.146025   -2.373230   -0.442251
H       1.166403   -1.958270    0.984471
H      -0.754101   -3.048956   -2.767848
H       1.063072   -3.078546   -2.629564
H       0.878538   -4.686416   -0.670476
H      -0.935371   -4.649516   -0.814230
H      -2.069346   -2.047572   -0.958599
H      -1.582432   -2.344147    0.723519
