21

C      -0.155562    1.559877   -0.093649
C       0.018299    0.050294   -0.004604
C       1.164862   -0.593494   -0.842555
O       1.322799   -0.214072   -2.170659
C       2.144360   -0.216213    0.319152
C       0.878821   -0.557131    1.150395
C       0.696911   -0.245686    2.607190
O       0.733280   -1.982342    0.913365
C       0.926067   -2.077368   -0.509357
H       0.775322    2.114047    0.050778
H      -0.548044    1.834501   -1.077807
H      -0.870203    1.908615    0.659510
H      -0.953527   -0.443019   -0.116529
H       2.105674   -0.649081   -2.526049
H       3.022906   -0.845879    0.484241
H       2.415225    0.838487    0.325716
H       0.778554    0.830298    2.785203
H      -0.287265   -0.581898    2.948724
H       1.457133   -0.755309    3.207241
H       0.034348   -2.484400   -1.001090
H       1.786969   -2.720554   -0.739060
