15

C       0.160671    0.680748    0.655179
O       0.070224    0.799448   -0.757657
C       0.586028   -0.228236   -1.452567
C       1.194302   -1.416249   -1.095075
C       1.492494   -2.024432   -2.345837
N       2.183390   -3.221808   -2.542610
N       1.100096   -1.291446   -3.378314
N       0.551602   -0.176370   -2.799630
H      -0.382776   -0.203194    1.010041
H       1.206790    0.613641    0.976981
H      -0.293809    1.581342    1.069502
H       1.414032   -1.779544   -0.106265
H       1.892486   -3.956238   -1.910927
H       2.101897   -3.533376   -3.502699
H       0.165653    0.553876   -3.370457
