20

C      -0.104821    1.564352   -0.127140
C       0.017244    0.051976   -0.002466
C       1.041276   -0.646254   -0.909384
O       2.344351   -0.179491   -0.528130
C       1.748312   -1.233776    0.235477
C       0.771971   -0.597808    1.249106
C       1.411931    0.354631    2.253990
C      -0.091989   -1.653544    1.938016
H       0.880361    2.037048   -0.132676
H      -0.614149    1.834866   -1.058922
H      -0.684539    1.988027    0.699683
H      -0.966773   -0.418201   -0.105240
H       0.927821   -1.000697   -1.928168
H       2.308198   -2.159421    0.324830
H       2.106108    1.037939    1.760180
H       0.653766    0.949765    2.775259
H       1.969945   -0.204874    3.013823
H       0.491740   -2.224171    2.669852
H      -0.927634   -1.186411    2.470873
H      -0.509729   -2.364619    1.216681
