16

O       0.034363   -0.018552    0.071682
C       0.015908    1.174811    0.087462
O       1.134364    1.911853   -0.093635
C       1.003739    3.344592   -0.024669
C       0.854766    3.874975    1.437565
N       2.318571    4.063154    1.499580
C       2.434455    3.948654    0.029034
C       0.087549    3.852783   -1.029066
C      -0.668453    4.285270   -1.857443
H      -0.891524    1.785709    0.240768
H       0.256988    4.794216    1.470223
H       0.455147    3.156556    2.161185
H       2.621198    4.948044    1.887994
H       3.220116    3.271629   -0.317385
H       2.492439    4.897893   -0.516402
H      -1.335843    4.661474   -2.593748
