17

C      -0.104027    1.561724    0.063351
C       0.012936    0.033537   -0.010372
C       0.831093   -0.477005   -1.183264
C       1.825331   -1.289300   -0.822208
C       1.889358   -1.419433    0.662804
N       2.159586   -0.127690    1.337021
C       0.754171   -0.587844    1.186962
C       0.021408   -0.961308    2.361668
N      -0.578150   -1.240183    3.311779
H       0.884990    2.010751    0.180403
H      -0.563222    1.957908   -0.847367
H      -0.727039    1.862224    0.911293
H      -0.997822   -0.394986   -0.052635
H       0.612757   -0.166560   -2.199089
H       2.530725   -1.772728   -1.486121
H       2.197854   -2.337719    1.150304
H       2.453153   -0.302700    2.297697
