21

C       0.039540    1.516487   -0.031611
C       1.319813    0.719089   -0.047842
C      -0.016346    0.009411    0.004599
C      -0.433318   -0.697228    1.284826
C      -0.013304   -2.173065    1.244946
C      -0.694134   -2.938646    0.094894
C      -0.761940   -2.145799   -1.200384
O      -1.800710   -1.156288   -1.281268
C      -0.441446   -0.707336   -1.238373
H      -0.219493    2.050571    0.876672
H      -0.261645    2.020529   -0.944118
H       1.887747    0.684148   -0.972226
H       1.932321    0.708975    0.847586
H       0.019119   -0.194457    2.146480
H      -1.521118   -0.623214    1.401904
H       1.075658   -2.222488    1.117872
H      -0.240471   -2.662188    2.198056
H      -0.166753   -3.881374   -0.088355
H      -1.721230   -3.205853    0.372425
H      -0.645206   -2.720827   -2.119754
H      -0.084193   -0.274057   -2.175026
