19

C       0.295460    1.564793    0.049180
O       1.237358    0.510222   -0.155835
C      -0.145337    0.166412   -0.030679
C      -0.534792   -0.625464    1.199982
C      -2.018256   -0.561128    1.529657
C      -2.546386   -1.772087    1.721658
C      -1.550770   -2.857001    1.483629
C      -1.034943   -2.933679    0.059104
C      -0.274211   -2.133382    1.087077
H       0.349717    2.055752    1.020627
H       0.146004    2.232515   -0.798265
H      -0.602024   -0.167734   -0.963322
H       0.054318   -0.213214    2.032130
H      -2.557541    0.378131    1.580844
H      -3.579201   -1.969763    1.986195
H      -1.551854   -3.751361    2.096433
H      -0.577634   -3.863760   -0.262068
H      -1.607185   -2.423133   -0.708328
H       0.695691   -2.506643    1.391024
