15

C      -0.041713    1.421329   -0.020116
N      -0.008019   -0.023596    0.017615
N       0.027652   -0.744287   -1.146942
C       0.037158   -2.004840   -0.764265
C       0.023809   -2.132465    0.650742
C       0.047887   -3.282089    1.463868
N       0.072554   -4.203286    2.169054
C      -0.002382   -0.812659    1.112599
N      -0.095502   -0.316431    2.396558
H       0.938777    1.855643    0.208552
H      -0.330769    1.715174   -1.028376
H      -0.777948    1.795225    0.697272
H       0.056262   -2.799132   -1.495013
H       0.014164   -1.031742    3.103114
H       0.483375    0.488280    2.595465
