20

C       0.117962    1.487671    0.141776
N      -0.003984    0.046648    0.150681
C      -1.258407   -0.554086    0.650489
C      -0.406802   -1.718035    1.234072
O      -0.295725   -2.829520    0.368049
C       0.780322   -0.722047    1.141416
C      -0.805646   -2.269985    2.576840
C       0.157497   -2.484287    3.660752
O      -0.743275   -1.370905    3.681603
H       1.129675    1.772886   -0.165854
H      -0.585189    1.915719   -0.580619
H      -0.082749    1.943930    1.129383
H      -1.740413    0.036854    1.445446
H      -1.996589   -0.813527   -0.116605
H      -0.092581   -2.483264   -0.508612
H       1.733557   -1.121202    0.778178
H       0.932381   -0.181604    2.088493
H      -1.696797   -2.898243    2.546798
H      -0.033060   -3.252160    4.408149
H       1.205126   -2.231467    3.507096
