17

C      -0.018590    1.534863    0.010399
C       0.002103   -0.004137    0.001970
C       0.746440   -0.513908    1.248876
C      -1.441902   -0.536736    0.013115
C       0.722350   -0.500496   -1.264456
H       0.997769    1.944205    0.004355
H      -0.541819    1.928414   -0.868199
H      -0.527584    1.918884    0.901485
H       0.255496   -0.176027    2.168331
H       0.778154   -1.608924    1.270889
H       1.779648   -0.149758    1.269440
H      -1.998719   -0.188888   -0.864081
H      -1.459569   -1.632272    0.006499
H      -1.980888   -0.199796    0.905616
H       1.754825   -0.135540   -1.301181
H       0.753970   -1.595240   -1.298223
H       0.213582   -0.153439   -2.170672
