13

N       0.048498    1.360169    0.168191
C      -0.016160    0.005133    0.056816
C      -1.233870   -0.684380    0.002050
C      -1.138906   -2.065526   -0.070785
O      -2.255739   -2.804625   -0.127004
N       0.024803   -2.726583   -0.089969
C       1.089047   -1.947666   -0.034364
F       2.247037   -2.583616   -0.055650
N       1.169211   -0.638968    0.034806
H       0.951502    1.779771    0.018766
H      -0.761717    1.915251   -0.045542
H      -2.193501   -0.186578    0.020232
H      -1.966667   -3.727300   -0.171665
