15

N      -0.071789   -1.129556   -0.071312
C      -0.022160    0.023361   -0.014399
C       0.052552    1.489693    0.027457
O      -0.422521    1.995794    1.292336
C       0.734857    2.721413    1.768667
C       1.190675    3.505575    0.515902
C       1.490722    2.053304    0.024669
C       1.904641    1.747280    1.499657
H      -0.559650    1.890917   -0.788832
H       0.502700    3.166471    2.733518
H       0.435609    4.092976   -0.011538
H       2.102264    4.083944    0.670307
H       2.112400    1.821501   -0.837628
H       2.880799    2.165290    1.747382
H       1.807431    0.724523    1.868147
