21

C       0.109364    1.623353   -0.137529
C       0.063860    0.110131   -0.008795
O       1.124927   -0.520301   -0.822603
C       1.595388   -1.238262    0.317365
C       2.137756   -0.311956    1.356716
C       0.643327   -0.546244    1.259517
C      -1.259062   -0.529520   -0.377005
C      -2.586790   -0.001704    0.114188
C      -2.237686    0.071236   -1.351452
H       1.055244    2.015567    0.240126
H       0.022201    1.915660   -1.187981
H      -0.701671    2.097767    0.423219
H       1.877274   -2.276637    0.185598
H       2.603955   -0.790862    2.212917
H       2.589598    0.629358    1.058562
H       0.048866   -0.933292    2.076356
H      -1.176588   -1.612117   -0.406803
H      -3.329627   -0.722634    0.437499
H      -2.603279    0.926105    0.675620
H      -2.021969    1.048412   -1.767357
H      -2.741291   -0.598909   -2.039069
