16

O       0.037959    0.007085   -0.268814
C      -0.020227    1.171368   -0.000807
C      -1.279104    1.977200    0.332023
C      -0.789250    3.250464    0.989907
C       0.116671    3.097495    2.185008
C       0.719469    3.352587    0.828422
C       1.210739    2.140284    0.050894
C       2.405739    1.498515    0.585745
N       3.353173    1.005749    1.026672
H      -1.803473    2.186611   -0.609621
H      -1.950830    1.368268    0.944067
H      -1.400148    4.141581    0.912829
H       0.150436    3.910887    2.900214
H       0.235162    2.113622    2.631072
H       1.199188    4.303804    0.635891
H       1.413376    2.422340   -0.992166
