16

O      -0.019518    1.423289   -0.059442
C       0.042223    0.033470   -0.019047
C      -0.386230   -0.749804    1.187490
C      -1.247873   -0.746175   -0.055694
N      -2.570259   -0.048082   -0.092866
C      -2.808969    0.192785   -1.521386
C      -3.092818   -1.172253   -0.992190
C      -1.788299   -1.919480   -0.828030
O      -1.415678   -3.035674   -1.050614
H      -0.866503    1.698950    0.311664
H       0.882090   -0.330551   -0.601351
H       0.129305   -1.676159    1.419719
H      -0.778395   -0.203344    2.039497
H      -3.674127    0.818358   -1.720667
H      -1.956557    0.357423   -2.174738
H      -4.095024   -1.574293   -0.904863
