13

O      -0.024121   -0.042868    0.325724
C      -0.059953    1.155595    0.143712
C       1.157940    1.992747    0.184372
N       2.123624    2.626153    0.221155
N      -1.176281    1.867217   -0.112277
C      -1.460674    3.290238   -0.359918
C      -2.943638    2.858658   -0.495517
O      -3.960069    3.432592   -0.716577
C      -2.557816    1.385932   -0.226784
H      -1.248955    3.957171    0.482639
H      -1.013261    3.698881   -1.272248
H      -2.731211    0.695288   -1.059138
H      -2.966320    0.953407    0.692955
