15

C       0.106287   -1.189454    0.026587
C       0.004587    0.011781   -0.002302
C      -0.060682    1.417643   -0.072160
C      -1.142098    2.223817    0.036394
C      -0.725333    3.636197   -0.003247
C       0.543477    4.005471    0.873343
O       1.222919    2.862787    1.323164
C       1.161975    2.318675   -0.062277
C       0.677097    3.706324   -0.572151
H       0.180547   -2.247700    0.065479
H      -2.155517    1.892018    0.221133
H      -1.423218    4.443802   -0.185409
H       0.587650    4.902771    1.478114
H       2.120640    1.899753   -0.359409
H       1.002123    4.275620   -1.433167
