18

O      -0.013729    1.344957    0.186529
C       0.054057   -0.044630   -0.088718
C      -1.340210   -0.624238   -0.121542
C      -2.301244   -0.088246   -1.170851
C      -3.473247   -0.614520   -0.820499
C      -3.122221   -1.416526    0.411227
C      -1.739162   -2.109079    0.195474
C      -1.466807   -1.812294    1.673379
N      -2.146382   -0.513211    1.232827
H      -0.642656    1.444663    0.912794
H       0.525920   -0.151534   -1.072192
H       0.695349   -0.567493    0.635733
H      -2.041706    0.591070   -1.969722
H      -4.454310   -0.499846   -1.257766
H      -3.900185   -1.904928    0.999243
H      -1.518519   -3.006356   -0.396612
H      -2.047202   -2.366528    2.416183
H      -0.436109   -1.691375    2.010871
