16

C       0.202383    1.508909    0.133336
C       0.074850    0.031364   -0.023361
C      -0.067752   -0.788151   -1.131011
C      -0.139488   -0.406906   -2.574834
N      -0.144209   -2.101531   -0.746703
C      -0.051151   -2.096242    0.568839
N       0.083358   -0.821931    1.052591
C      -0.079555   -3.223935    1.427800
N      -0.097979   -4.116688    2.165492
H       1.147857    1.788664    0.612937
H       0.171550    1.995373   -0.843104
H      -0.611297    1.927279    0.737555
H      -0.063031    0.674577   -2.711295
H       0.668715   -0.879314   -3.142370
H      -1.083293   -0.739818   -3.018544
H       0.171969   -0.564020    2.022409
