23

C      -0.083606    1.562176    0.000998
C       0.017753    0.029383   -0.016426
C       0.706259   -0.483943   -1.289073
C       1.028993   -1.975323   -1.171762
C       1.980062   -2.250052    0.000054
O       3.347277   -1.968409   -0.336999
C       1.584186   -1.501335    1.258050
C       2.264739   -1.949168    2.523633
C       0.713057   -0.487812    1.220697
H       0.912059    2.019943    0.005623
H      -0.619236    1.928856   -0.880924
H      -0.617088    1.915964    0.889539
H      -1.012777   -0.363511   -0.009129
H       0.077181   -0.288375   -2.164267
H       1.635439    0.082631   -1.448470
H       0.099259   -2.537686   -1.013442
H       1.489377   -2.357621   -2.088066
H       1.983962   -3.326913    0.209664
H       3.441266   -1.010046   -0.362251
H       3.352196   -1.954046    2.390696
H       2.017382   -1.302838    3.369973
H       1.977641   -2.976536    2.783726
H       0.464195    0.022801    2.151327
