12

N      -0.011404    1.225181    0.001636
C      -0.028028   -0.019831    0.055235
O       1.003833   -0.953090    0.190526
C       0.078563   -2.040899   -0.014087
C      -0.907677   -2.077697    1.084701
C      -1.099495   -1.067016   -0.069549
C      -2.262339   -1.028747   -0.886491
N      -3.210828   -1.013166   -1.548222
H       0.932949    1.601631    0.092164
H       0.366339   -2.831936   -0.691840
H      -1.624404   -2.892075    1.063228
H      -0.635476   -1.706655    2.066991
