14

O       0.193941    1.392032   -0.093827
C       0.116328    0.015856   -0.060263
C       0.004964   -0.681290    1.340897
N      -1.407897   -0.092773    1.389520
C      -1.329856   -0.634715   -0.031797
C      -2.452742   -0.540803   -0.994593
O      -3.553517   -0.146823   -0.697962
C      -0.624192   -1.877082    0.619286
O      -0.708258   -3.060778    0.661553
H      -0.458567    1.716763    0.545217
H       0.832391   -0.400523   -0.768256
H       0.681184   -0.622882    2.190998
H      -2.044357   -0.641267    1.971091
H      -2.204525   -0.882205   -2.022609
