19

C       0.130849    1.660849   -0.012620
C       0.120595    0.133598    0.021215
C       0.850074   -0.506121   -1.173605
O       0.928943   -0.025411   -2.273969
C       1.470702   -1.839648   -0.729320
C       1.533830   -1.744406    0.781782
C       2.240550   -0.530190    1.360864
C       0.736628   -0.546795    1.234829
O      -0.043049   -0.667653    2.386219
H       1.143016    2.050667    0.135943
H      -0.224783    2.016375   -0.982923
H      -0.513753    2.078176    0.767274
H      -0.920395   -0.221451   -0.039531
H       0.804529   -2.651020   -1.050928
H       2.432353   -1.994281   -1.227693
H       1.513990   -2.647039    1.380169
H       2.634387   -0.637312    2.365113
H       2.835457    0.099729    0.704477
H      -0.034898    0.180120    2.843821
