19

N      -0.047024    1.474035    0.045844
C       0.007469    0.008904    0.020606
C      -1.431498   -0.556387    0.053237
C      -1.436907   -2.080549   -0.123741
C      -0.627395   -2.477258   -1.358389
O       0.696450   -1.963059   -1.301990
C       0.722774   -0.559272   -1.239095
C       0.740424   -0.432621    1.222714
N       1.326769   -0.776411    2.156910
H       0.891102    1.865039    0.031042
H      -0.521934    1.804330   -0.790070
H      -1.923180   -0.249433    0.979553
H      -1.977133   -0.084812   -0.775548
H      -1.000404   -2.559021    0.759803
H      -2.464681   -2.446640   -0.220501
H      -0.525404   -3.562514   -1.436642
H      -1.128557   -2.114258   -2.272719
H       0.225132   -0.112302   -2.118910
H       1.774464   -0.258187   -1.247527
