15

C      -0.062371    1.449597    0.022049
C       1.417879    1.850770   -0.033700
N       2.185537    1.429826    1.147851
C       2.264410    0.615882   -0.095256
C       1.296483   -0.501289   -0.065000
N       1.268181   -1.820120   -0.063748
C      -0.073909   -2.064882    0.035408
N      -0.860111   -0.992204    0.097272
N       0.048616   -0.002103    0.016725
H      -0.554091    1.803310    0.932019
H      -0.619569    1.802726   -0.851422
H       1.691511    2.757779   -0.559658
H       3.024849    2.001350    1.223677
H       3.190083    0.553831   -0.652409
H      -0.485150   -3.063047    0.061121
