23

C      -0.064194    1.616158   -0.036464
C       0.023760    0.086937    0.011166
C       0.839113   -0.537616   -1.151081
C       1.569533   -1.773448   -0.561243
C       2.951206   -2.017177   -1.186113
C       3.610767   -3.317008   -0.742513
O       4.847163   -3.434534   -1.432161
C       1.566873   -1.460603    0.922864
C       0.737111   -0.465188    1.227356
H       0.934933    2.064769   -0.006490
H      -0.557952    1.954559   -0.953762
H      -0.634477    2.009414    0.812142
H      -1.004458   -0.308151   -0.003211
H       0.223391   -0.785407   -2.020338
H       1.591255    0.188955   -1.483818
H       0.961570   -2.677178   -0.732920
H       2.857918   -2.043913   -2.278830
H       3.619563   -1.180789   -0.947792
H       3.767192   -3.313825    0.348007
H       2.945037   -4.166076   -0.971772
H       5.280449   -4.240311   -1.136439
H       2.151503   -2.024649    1.642078
H       0.545368   -0.092082    2.228711
