20

C       0.035148    1.527342    0.081466
C       0.019605    0.013324   -0.044017
C       0.756225   -0.507224   -1.277412
C       0.937701   -2.021395   -1.220838
C       2.162603   -2.585611   -0.564939
C       0.819042   -2.692534    0.135850
C       0.578581   -1.861848    1.342221
N       0.403408   -2.385360    2.482428
O       0.619049   -0.501950    1.166994
H       1.064115    1.893480    0.151402
H      -0.437882    1.985594   -0.792319
H      -0.504549    1.845009    0.977113
H      -1.020485   -0.343106   -0.074205
H       0.183336   -0.229054   -2.168086
H       1.727149   -0.003570   -1.355656
H       0.534431   -2.579767   -2.058745
H       2.592356   -3.504146   -0.947514
H       2.882860   -1.882685   -0.159011
H       0.380567   -3.680053    0.198421
H       0.257251   -1.649296    3.176998
