18

C      -0.030474    1.424889   -0.122385
N      -0.021364   -0.009964   -0.040852
C      -1.101353   -1.007624    0.011744
C       0.009826   -2.067331   -0.000941
C       0.120040   -3.380617    0.728561
C       0.055732   -3.343272   -0.777333
O      -1.131471   -3.692017   -1.425575
C       1.008310   -0.923726   -0.054975
O       2.206871   -0.804264   -0.101102
H       1.008860    1.759167   -0.172173
H      -0.557138    1.776620   -1.018666
H      -0.504465    1.878238    0.757196
H      -1.704454   -0.961286    0.925605
H      -1.755086   -1.010749   -0.866590
H       1.067167   -3.611867    1.205212
H      -0.766583   -3.728470    1.248962
H       0.972706   -3.547030   -1.330063
H      -1.200662   -4.652678   -1.425414
