21

C       0.024697    1.554064    0.276518
C       1.554966    1.436634   -0.077393
C       1.166915    0.220340   -0.958909
C       0.547705    0.638740   -2.332640
C      -0.836431   -0.078582   -2.357126
C      -0.766490   -0.884959   -1.059078
O       0.288113   -1.884602   -1.225024
C       1.594363   -1.229278   -1.102000
C      -0.071650    0.033355   -0.060105
H      -0.233135    1.838501    1.298196
H      -0.512669    2.206266   -0.414373
H       2.038847    2.284760   -0.568047
H       2.139337    1.151839    0.802214
H       0.444301    1.722796   -2.417221
H       1.195328    0.317067   -3.152613
H      -1.671957    0.630224   -2.344438
H      -0.963998   -0.736772   -3.219251
H      -1.668103   -1.426879   -0.770409
H       2.179779   -1.465245   -1.998103
H       2.116872   -1.620832   -0.219895
H       0.177727   -0.536185    0.840535
