19

C       0.072620    1.597055   -0.114767
C       0.106592    0.079550   -0.113645
C       0.736232   -0.741199   -1.267388
C       1.241174   -1.696553   -0.113296
C       2.356455   -0.735575    0.083950
N       1.061988   -0.582975    0.849018
C       2.176606   -0.216324   -1.321055
C       3.119590   -0.347212   -2.446532
N       2.735103    0.987395   -1.916962
H       1.060466    2.026627   -0.296449
H      -0.616800    1.967219   -0.882316
H      -0.282110    1.959644    0.855338
H      -0.883278   -0.321642    0.129253
H       0.195566   -1.002028   -2.176567
H       1.120595   -2.747179    0.112243
H       3.259503   -0.829279    0.671403
H       4.156449   -0.621168   -2.269990
H       2.729408   -0.656881   -3.413193
H       2.059343    1.427644   -2.537307
