21

C      -0.045255    1.604445   -0.070756
C      -0.000658    0.075657    0.013274
C      -1.400293   -0.545731    0.079037
C      -1.412952   -2.096244    0.069622
C      -0.744768   -2.714446    1.316704
C      -2.779260   -2.589029   -0.073924
C      -3.917913   -2.986302   -0.184629
C      -5.197487   -3.433833   -0.305075
C      -6.333026   -3.830902   -0.413384
H       0.961985    2.029654   -0.117175
H      -0.589847    1.936562   -0.961358
H      -0.548371    2.033757    0.802636
H       0.532828   -0.324093   -0.859683
H       0.585239   -0.219192    0.891506
H      -1.923850   -0.195774    0.977928
H      -1.990057   -0.193457   -0.775261
H      -0.847382   -2.426561   -0.814580
H      -1.249536   -2.380174    2.228347
H      -0.796519   -3.805494    1.281656
H       0.307357   -2.424610    1.376492
H      -7.331152   -4.179863   -0.506301
