23

C       0.119581    1.380724   -0.441449
C      -0.071980    0.039454    0.277723
C      -1.496859   -0.503794    0.206498
C      -2.515986    0.314326    0.983239
C      -1.934404   -1.148097   -1.103786
C      -1.655571   -2.002425    0.115747
O      -0.468483   -2.750027    0.133452
C      -2.773320   -2.757056    0.796349
O      -2.858090   -4.021518    0.131382
H       1.166737    1.696080   -0.395085
H      -0.160145    1.303954   -1.497649
H      -0.481603    2.179993    0.003563
H       0.610232   -0.701648   -0.144018
H       0.211752    0.147257    1.333382
H      -2.528992    1.350294    0.628773
H      -3.533288   -0.070019    0.876031
H      -2.274836    0.335161    2.052868
H      -2.961833   -1.019153   -1.430565
H      -1.204687   -1.202663   -1.904584
H      -0.726448   -3.633544   -0.160485
H      -2.527557   -2.897197    1.859223
H      -3.726364   -2.218806    0.728113
H      -3.325636   -4.635049    0.704527
