18

C      -0.116708    1.262537    0.188715
C       0.722116    0.200134   -0.478193
O       1.886067    0.005020   -0.200802
C       0.042899   -0.672480   -1.540916
C      -0.106442   -2.106801   -1.051811
C       0.461948   -3.236778   -1.862001
N       1.081372   -2.871845   -0.600633
C      -1.303911   -2.394132   -0.209385
O      -2.173646   -1.593580    0.035998
H      -0.446248    1.994206   -0.559258
H      -1.024207    0.804989    0.597360
H       0.452561    1.765567    0.970901
H      -0.943396   -0.284711   -1.805777
H       0.682777   -0.650450   -2.428037
H      -0.032103   -4.205228   -1.870839
H       0.931968   -2.956903   -2.801476
H       1.899319   -2.276783   -0.722869
H      -1.323393   -3.428569    0.195175
