16

O       0.101151    0.506849    0.977709
C      -0.097409    1.202840    0.033123
O      -1.319365    1.628413   -0.300451
C      -1.531807    2.632889   -1.308919
C      -1.324143    4.029051   -0.726687
C       0.025987    4.175268   -0.005143
N       1.145609    3.880592   -0.885924
C       1.450206    2.709191   -1.214882
O       0.924320    1.481380   -0.863711
H      -0.883463    2.443004   -2.167530
H      -2.566259    2.489628   -1.626355
H      -1.389757    4.754954   -1.544515
H      -2.126434    4.256234   -0.017027
H       0.132865    5.206972    0.339930
H       0.036468    3.545395    0.894601
H       2.279220    2.515096   -1.891251
