21

C       0.029503    1.562605    0.179917
C       0.001237    0.049440   -0.102778
C      -1.343396   -0.516847   -0.060193
C      -2.458436   -0.972622   -0.007366
C      -3.821855   -1.509973    0.007200
C      -3.829038   -3.043437    0.119012
C      -4.635567   -0.861777    1.156956
C      -4.475549   -1.061555   -1.311928
O      -4.998302   -1.796935   -2.104635
H       1.055932    1.938604    0.138190
H      -0.566871    2.106905   -0.557355
H      -0.377930    1.780651    1.170797
H       0.447897   -0.148986   -1.085454
H       0.635362   -0.471981    0.625746
H      -3.379472   -3.354729    1.065388
H      -4.854427   -3.418618    0.070269
H      -3.265811   -3.494316   -0.700494
H      -4.682081    0.225332    1.044404
H      -5.655717   -1.258041    1.170869
H      -4.160432   -1.081745    2.116414
H      -4.429032    0.038514   -1.474921
