21

C      -0.171830    1.522664   -0.020384
C      -0.007151    0.006543   -0.001752
C      -1.260075   -0.832818    0.399950
C      -0.362252   -1.691380    1.331855
C       0.801099   -0.668161    1.160713
C       2.127265   -1.194871    0.563526
O       2.552553   -2.464509    1.042395
C       1.850614   -1.151688   -0.927920
C       0.712295   -0.524595   -1.221756
H       0.794257    2.026328   -0.134610
H      -0.811206    1.839104   -0.853339
H      -0.634507    1.878709    0.906400
H      -1.990013   -0.234731    0.953709
H      -1.782922   -1.356400   -0.405485
H      -0.721862   -1.838375    2.351795
H      -0.142205   -2.677070    0.912322
H       0.950723   -0.046878    2.045693
H       2.961226   -0.530333    0.823538
H       1.896268   -3.114546    0.769778
H       2.537840   -1.591922   -1.643044
H       0.321095   -0.372278   -2.224111
