18

O      -0.169686    0.172540   -0.674697
C       0.055973    1.042812    0.136975
C       1.227685    1.925375    0.111829
C       2.096398    2.043513   -1.127827
C       2.716539    1.431575    0.071113
C       3.102140    2.486967    1.118774
C       1.642008    2.980050    1.126651
C       1.084221    4.337945    1.308504
N       0.953941    3.309884    2.368249
H      -0.635950    1.206708    0.995127
H       1.809718    1.357341   -1.917540
H       2.391364    3.038060   -1.452144
H       3.014171    0.390875    0.088749
H       3.372712    2.056503    2.084990
H       3.871538    3.202104    0.810943
H       1.736982    5.168295    1.564162
H       0.203201    4.611646    0.732885
H       0.008698    2.934250    2.377066
