19

O      -0.174335    1.473627   -0.212035
C      -0.186970    0.061485   -0.235171
C      -1.438166   -0.541950    0.322215
C      -2.579534    0.153633    0.555850
C      -3.209285    0.775604   -0.714589
C      -3.971077   -0.594645   -0.749534
C      -3.273544   -1.887909   -0.157540
C      -1.762828   -2.015930    0.102818
C      -3.774292   -0.804504    0.725132
H      -0.632971    1.740277    0.594339
H      -0.059959   -0.237270   -1.287445
H       0.685865   -0.359061    0.299051
H      -3.935239    1.580536   -0.552929
H      -2.522348    1.050191   -1.517995
H      -4.899469   -0.747713   -1.295679
H      -3.868434   -2.785841   -0.315710
H      -1.174034   -2.386559   -0.746184
H      -1.576147   -2.704280    0.939499
H      -4.493567   -0.838761    1.532990
