24

C      -0.724724    1.275420    0.246891
C      -0.593830   -0.246956    0.108292
C       0.240860   -0.706365   -1.096839
C      -0.458545   -0.359824   -2.418571
C       1.756206   -0.348368   -1.176621
N       2.152376   -1.781865   -1.434427
C       1.800067   -2.564666   -0.230988
C       2.078845   -2.150615    1.196879
C       0.699820   -2.172962   -1.140851
H       0.258927    1.754348    0.308928
H      -1.257566    1.722785   -0.597313
H      -1.275537    1.535468    1.156056
H      -0.166466   -0.648400    1.031088
H      -1.594171   -0.693321    0.025101
H      -0.565579    0.721977   -2.543839
H       0.112777   -0.739583   -3.271102
H      -1.460091   -0.804174   -2.458927
H       2.021677    0.266796   -2.039177
H       2.214675    0.092877   -0.286242
H       2.099952   -3.599181   -0.403003
H       1.861029   -1.104593    1.410183
H       1.485103   -2.760840    1.885949
H       3.135839   -2.323007    1.428516
H       0.195147   -2.922479   -1.747971
