19

O      -0.784150    1.735386    0.382026
C      -0.169205    0.519088    0.054357
C      -0.138697   -0.661127    0.998566
C      -1.040248   -0.653339    2.223260
C      -2.459978   -0.261013    1.709529
C      -2.477065   -0.680762    0.208260
C      -1.024899   -0.676027   -0.243305
C      -3.542159   -0.839689    2.492158
C      -4.431261   -1.329909    3.137100
H      -0.211508    2.200034    1.001356
H       0.710372    0.629388   -0.580754
H       0.775781   -1.243233    1.049342
H      -1.064505   -1.658304    2.656430
H      -0.705090    0.028701    3.011946
H      -2.539319    0.827606    1.745686
H      -2.878191   -1.694337    0.108009
H      -3.115842   -0.014237   -0.378194
H      -0.770089   -1.270986   -1.113787
H      -5.219837   -1.754618    3.706938
