17

O      -0.007261    1.402245    0.092580
C       0.003046   -0.013279    0.045428
C      -1.389949   -0.555478   -0.031591
O      -2.297287   -0.190018    1.064249
C      -3.121772   -0.984065    0.163028
C      -2.490187   -0.414820   -1.137124
C      -2.192985   -1.811808   -1.722986
C      -1.965167   -1.995415   -0.203388
O      -1.504950   -3.084899    0.494069
H      -0.649869    1.647199    0.769058
H       0.569901   -0.306069   -0.844749
H       0.506808   -0.447737    0.922853
H      -4.166803   -1.154419    0.420217
H      -2.775690    0.504006   -1.640740
H      -3.042251   -2.344833   -2.160584
H      -1.311721   -1.898495   -2.363861
H      -2.093395   -3.830942    0.334397
