16

C       0.103848    1.543567   -0.059181
C      -0.022204    0.058310   -0.003863
C       0.384269   -1.052670   -0.956056
C       0.871661   -1.022624    0.522796
N      -0.188047   -1.775173    1.262718
C      -1.165122   -0.899996    0.442057
C      -0.903289   -1.883635   -0.756303
C      -0.497263   -2.892417    0.321940
O      -0.493405   -4.066892    0.487941
H       1.101419    1.831821   -0.407466
H      -0.627182    1.982203   -0.747537
H      -0.047243    1.992483    0.928761
H       1.057555   -1.034565   -1.801676
H       1.910381   -1.018871    0.824533
H      -2.135266   -0.673478    0.876780
H      -1.568516   -2.095889   -1.589017
