18

O       0.095447    1.289104    1.185540
C       0.146428    1.552643    0.001602
N       1.186000    1.250564   -0.818118
C       2.406356    0.620958   -0.329696
C       3.420032    1.630706    0.169450
C       4.916528    1.384934    0.262891
C       5.415332    0.643185   -0.972987
O       4.737049    1.575268   -1.859651
C       4.351265    2.375821   -0.734739
H      -0.674245    2.063196   -0.541303
H       1.168430    1.596825   -1.764120
H       2.118357   -0.051211    0.482009
H       2.826302    0.026098   -1.143127
H       3.058864    2.236139    0.997810
H       5.480645    1.542673    1.171841
H       6.500277    0.717807   -1.105419
H       5.098181   -0.394552   -1.129471
H       4.428395    3.452746   -0.832443
