17

C       0.211625    1.489651   -0.123470
C       0.002642    0.018058    0.036517
N      -0.458159   -0.692644   -0.965706
O      -0.535167   -2.007775   -0.492048
C      -0.114694   -2.044406    0.787488
C       0.244710   -0.794074    1.184065
C      -0.115104   -3.349781    1.460089
C      -1.183044   -4.348925    1.157424
N       0.187702   -4.577589    0.695122
H       1.259630    1.755914    0.048096
H      -0.068169    1.801154   -1.131446
H      -0.391850    2.050465    0.597610
H       0.626152   -0.490774    2.145004
H       0.315528   -3.327382    2.456471
H      -1.521117   -5.013629    1.947197
H      -1.939179   -4.062513    0.432763
H       0.256086   -4.338756   -0.292151
