17

C      -0.004800    1.001042    0.551829
C      -0.084594    0.164995   -0.728810
N      -1.329224   -0.576650   -0.858893
C      -1.560071   -1.794996   -0.330785
N      -0.554252   -2.426793    0.306821
C      -0.875033   -3.628093    0.769119
N      -2.058457   -4.237249    0.670776
C      -2.973838   -3.503563    0.024533
N      -2.804665   -2.299394   -0.494864
H       0.941196    1.550689    0.587709
H      -0.822839    1.726705    0.603456
H      -0.060164    0.354301    1.431439
H       0.008846    0.806321   -1.611183
H       0.734375   -0.556867   -0.754851
H      -2.136167   -0.132879   -1.268076
H      -0.086466   -4.171817    1.287034
H      -3.963243   -3.944618   -0.085022
