19

C      -0.049874    1.543042    0.131008
C       0.003556    0.018288    0.025091
C      -1.405701   -0.595972   -0.037797
C      -1.400986   -2.051913    0.020762
C      -1.390698   -3.251479    0.088936
O       0.673495   -0.404814   -1.155054
C       2.075413   -0.354842   -1.112208
C       2.609068   -1.123761   -2.310403
O       3.762445   -1.113419   -2.648212
H       0.955246    1.973071    0.157426
H      -0.581033    1.967213   -0.726996
H      -0.565083    1.849100    1.046777
H       0.526846   -0.394324    0.902069
H      -2.003169   -0.192821    0.788674
H      -1.882037   -0.258054   -0.966677
H      -1.387168   -4.311946    0.140449
H       2.476544    0.669574   -1.142573
H       2.471213   -0.832170   -0.198535
H       1.829043   -1.711691   -2.841491
