23

C       1.091104    1.039130   -0.708067
C       0.275290   -0.081331   -0.055986
O       0.268489   -1.260142   -0.870548
C       1.185151   -2.222539   -0.377227
C       2.653331   -2.099730   -0.880223
C       3.084775   -1.565909    0.517276
C       1.629641   -1.774159    1.044216
C       0.737066   -0.558130    1.348114
C       1.334983    0.508342    2.265446
H       2.157768    0.807247   -0.762765
H       0.728668    1.197421   -1.727666
H       0.974734    1.978471   -0.157688
H      -0.767859    0.255645   -0.007665
H       0.725572   -3.207365   -0.499624
H       3.104735   -3.059593   -1.144842
H       2.776009   -1.416052   -1.722745
H       3.832559   -2.178325    1.026195
H       3.441431   -0.533489    0.530024
H       1.556960   -2.528726    1.830087
H      -0.158973   -0.957136    1.840359
H       2.256658    0.934613    1.859591
H       0.631178    1.332236    2.425210
H       1.570885    0.083616    3.246602
