18

O      -0.138776    1.378382   -0.343600
C      -0.002856    0.022447   -0.008853
C      -0.177418   -0.363480    1.451544
C      -1.283932   -0.644134    0.459456
C      -2.562601    0.127095    0.497609
C      -3.716038   -0.307802   -0.327496
N      -3.753223   -0.463601    1.138954
C       0.922625   -0.721976   -0.823742
C       1.716951   -1.321841   -1.499436
H       0.714533    1.802307   -0.198034
H       0.403249   -1.191380    1.841048
H      -0.327496    0.466757    2.133693
H      -1.392147   -1.680370    0.149622
H      -2.444153    1.187397    0.695774
H      -4.408217    0.426885   -0.728644
H      -3.592227   -1.194359   -0.944853
H      -3.564598   -1.433309    1.384578
H       2.408887   -1.853891   -2.104262
