23

C      -0.105843    1.638895   -0.009308
C       0.049045    0.123922    0.004125
C       1.060991   -0.600133   -0.935514
C       2.385843    0.158526   -0.948544
O       2.949418    0.310649    0.353018
C       2.093879    0.150144    1.483112
C       0.810386   -0.607318    1.151675
C       1.162875   -1.733210    0.131469
C       0.158313   -2.873351    0.006923
H       0.846431    2.163541    0.107080
H      -0.554215    1.974763   -0.951328
H      -0.765179    1.968767    0.801680
H      -0.939193   -0.329067   -0.116079
H       0.747731   -0.850401   -1.954054
H       3.128843   -0.391812   -1.540658
H       2.257438    1.144866   -1.420353
H       2.676038   -0.404828    2.230520
H       1.856648    1.133357    1.917822
H       0.265121   -0.864243    2.065385
H       2.170233   -2.147002    0.250999
H      -0.869480   -2.517559   -0.115363
H       0.392814   -3.504766   -0.857292
H       0.181936   -3.510699    0.897863
