21

C      -0.078978    1.527777   -0.009768
C      -0.101709    0.018403    0.088733
C      -1.209914   -0.674010   -0.672351
O       1.201486   -0.607708   -0.040801
C       0.551785   -0.658315    1.218473
C       1.241779   -0.117702    2.490332
C       0.906359   -1.450097    3.182298
C      -0.572627   -1.699268    3.147128
C       0.239026   -1.974293    1.904768
H       0.761914    1.944943    0.548508
H       0.016785    1.841544   -1.055381
H      -1.007078    1.957015    0.383626
H      -1.131363   -0.458219   -1.743782
H      -1.162506   -1.756481   -0.536586
H      -2.190691   -0.323926   -0.332165
H       2.311181    0.012263    2.306985
H       0.839986    0.791069    2.951156
H       1.561875   -1.979553    3.861689
H      -0.914401   -2.581999    3.678201
H      -1.272770   -0.866996    3.172248
H       0.299243   -2.952741    1.445351
