18

N       0.039095   -1.128838    0.032935
C       0.020137    0.027790    0.003101
C      -0.016259    1.467821   -0.028301
C       0.483617    2.131391   -1.300309
C       1.328425    2.196066   -0.059755
C       1.454801    3.497042    0.736496
O       0.423406    3.700820    1.684128
C      -0.860926    3.563234    1.111189
C      -1.151549    2.096383    0.778693
H       0.800679    1.485206   -2.110037
H      -0.030957    3.033386   -1.617349
H       2.206867    1.560901   -0.046874
H       2.384883    3.487818    1.309921
H       1.496904    4.353360    0.042689
H      -1.577834    3.925297    1.852743
H      -0.956109    4.203314    0.217804
H      -2.101328    2.005019    0.239845
H      -1.253053    1.545141    1.718617
