12

O       0.028655    1.399169    0.260135
C       0.030630    0.015043   -0.029795
C      -1.386764   -0.455455    0.004116
C      -2.586385    0.212378   -0.066492
N      -3.602142   -0.696188   -0.011582
N      -3.104361   -1.891967    0.086896
N      -1.759396   -1.755150    0.099848
H       0.904691    1.747236    0.070272
H       0.465242   -0.185103   -1.023241
H       0.630797   -0.553875    0.700787
H      -2.763871    1.271334   -0.142638
H      -1.184602   -2.578766    0.181262
