21

C      -0.026228    1.515324    0.108684
C       1.522999    1.402614    0.023936
C       2.034176    1.054304    1.420595
O       1.130919    0.172375    2.082716
C       0.472546   -0.745536    1.208903
C       1.443819   -1.818911    0.675268
C       2.165282   -1.153902   -0.531245
C       1.322392    0.096324   -0.828949
C      -0.027888   -0.019096   -0.069052
H      -0.453589    1.930212    1.024994
H      -0.451709    2.020760   -0.761707
H       2.099826    2.220915   -0.414594
H       3.044863    0.618780    1.374794
H       2.091967    1.952918    2.045657
H      -0.334573   -1.173182    1.809714
H       2.120452   -2.156077    1.464665
H       0.870890   -2.690868    0.340505
H       3.207116   -0.905484   -0.303026
H       2.188083   -1.821796   -1.397463
H       1.232985    0.332619   -1.891483
H      -0.883118   -0.522911   -0.526520
