20

C       0.242899    0.724332    1.725926
C      -0.359892   -0.688066    1.762057
C      -0.892247   -1.048060    3.157577
C      -1.471377   -0.796570    0.739506
O      -1.112283   -0.850165   -0.652375
C      -1.774032   -1.975580   -0.086015
C      -0.970571   -3.269043   -0.053429
C      -1.526074   -4.228635    0.899158
N      -1.980438   -4.967123    1.662993
H       1.074307    0.809811    2.432258
H       0.614349    0.965606    0.725921
H      -0.506371    1.476125    2.000128
H       0.431810   -1.396840    1.493594
H      -1.699429   -0.368986    3.455840
H      -1.283452   -2.069507    3.190272
H      -0.097909   -0.964436    3.905354
H      -2.312751   -0.126501    0.936217
H      -2.804185   -2.112681   -0.417909
H      -0.970037   -3.719874   -1.052680
H       0.072033   -3.064808    0.202610
