11

N       0.014062    1.311399    0.007583
C      -0.040329   -0.022704    0.001097
N      -1.204141   -0.640770    0.003847
C      -1.079876   -1.972065   -0.003847
F      -2.227084   -2.606908   -0.000842
N      -0.018703   -2.722032   -0.013085
C       1.185333   -2.106258   -0.015980
O       2.281998   -2.557507   -0.024036
O       1.134721   -0.619676   -0.008102
H       0.902033    1.782455    0.005387
H      -0.846671    1.831266    0.014673
