15

C       0.000006    1.543246    0.030149
C      -0.043547    0.047928   -0.015558
C      -0.847178   -0.804704    0.866024
N       0.646347   -0.820699    1.057025
C       1.141092   -1.673146    0.006511
O       1.845657   -2.624528    0.053583
C       0.559463   -0.795249   -1.155141
C      -0.327331   -1.393040   -2.134045
N      -1.057157   -1.881524   -2.886090
H       0.990310    1.919124   -0.245307
H      -0.731783    1.966786   -0.666071
H      -0.236243    1.903204    1.034720
H      -1.349808   -0.335651    1.704917
H      -1.331984   -1.700716    0.488159
H       1.388144   -0.282407   -1.653662
