18

C       0.075323    1.443221    0.147253
C      -0.088865   -0.035226    0.011680
N       0.028759   -0.680992   -1.080368
C      -0.140140   -2.114862   -0.791611
C      -0.546877   -2.216238    0.701913
C       0.349690   -2.977196    1.715808
N       0.814642   -1.975414    2.696587
C       0.393203   -0.841477    2.305149
N      -0.419796   -0.807028    1.157417
H       0.901885    1.685517    0.825184
H       0.286208    1.875070   -0.830807
H      -0.830723    1.895269    0.563122
H      -0.903177   -2.538942   -1.450164
H       0.800479   -2.638010   -1.011999
H      -1.590373   -2.529092    0.797863
H      -0.202028   -3.767680    2.231573
H       1.224045   -3.448160    1.246874
H       0.617461    0.088802    2.817926
