16

O      -0.129506    1.299571   -0.046437
N       0.010430   -0.102408    0.002770
C      -1.122604   -0.668224   -0.029394
C      -2.574734   -0.210914   -0.021242
C      -2.965806   -1.701943    0.067267
O      -3.946488   -2.188626    0.904388
C      -2.413567   -2.472022   -1.075448
O      -2.343006   -1.906962   -2.348588
C      -1.458532   -2.112843    0.058980
H       0.785165    1.594506    0.013963
H      -2.812833    0.324227    0.901964
H      -2.931002    0.352624   -0.885763
H      -4.758406   -2.295042    0.395759
H      -2.691958   -3.527583   -1.051266
H      -1.482203   -2.118028   -2.725981
H      -0.918967   -2.873781    0.608490
