17

N      -0.129573   -1.073377   -0.396369
C      -0.073039    0.059268   -0.176402
C       0.019650    1.490683    0.123273
C       1.444072    1.977756    0.122758
C       2.591549    1.569353    1.046113
C       3.368363    2.754259    0.408388
C       3.489418    2.305068   -1.057296
N       2.000455    2.427308   -1.204654
C       1.975461    3.352457   -0.032953
H      -0.554643    2.047494   -0.624091
H      -0.446549    1.669569    1.099551
H       2.332228    1.763906    2.090309
H       3.020279    0.566874    0.947695
H       4.169444    3.256029    0.946806
H       3.956930    3.048242   -1.707597
H       3.902089    1.311514   -1.265649
H       1.520372    4.334468   -0.036551
