20

C       0.062468    1.389424   -0.247455
N       0.022956   -0.036677    0.044783
C      -1.251984   -0.488243    0.707249
C      -1.385929   -1.965409    0.356182
O      -0.128464   -2.606583    0.579561
C       0.607764   -1.949427    1.590930
C      -0.278521   -1.652981    2.833651
C      -0.627883   -0.317343    2.152533
C       0.682631   -0.380946    1.322428
H       1.076628    1.666411   -0.554410
H      -0.610166    1.605355   -1.084200
H      -0.225245    2.041818    0.597634
H      -2.145413    0.089974    0.458540
H      -2.179226   -2.441189    0.952865
H      -1.623418   -2.092845   -0.704166
H       1.539840   -2.501743    1.716121
H      -1.064514   -2.376366    3.067508
H       0.326491   -1.480008    3.729054
H      -0.965502    0.543869    2.729558
H       1.620451    0.122284    1.567562
