20

O      -0.064733    1.421017   -0.073770
C       0.019897    0.023557    0.027832
C       0.248450   -0.660496    1.403796
N      -0.788477   -1.682563    1.043749
C      -0.405791   -2.535520   -0.170530
C      -1.542065   -1.852633   -0.974660
C      -1.361510   -0.710106    0.028867
C       0.952459   -2.151428   -0.762981
C       0.965309   -0.618791   -0.993263
H       0.821192    1.774878   -0.208071
H       1.247302   -1.033463    1.654271
H      -0.132550   -0.061353    2.236420
H      -0.484290   -3.607527    0.025653
H      -1.381236   -1.669025   -2.039661
H      -2.506510   -2.344078   -0.830344
H      -2.201556   -0.081908    0.336692
H       1.756211   -2.447875   -0.081061
H       1.120562   -2.695523   -1.698739
H       0.636094   -0.359560   -2.004829
H       1.978378   -0.213465   -0.869260
