16

C      -0.079557    1.514034    0.216385
C      -0.076069    0.033885    0.056018
N      -1.034953   -0.764024    0.308865
C      -0.571194   -2.113788   -0.011406
C      -1.049193   -2.631779   -1.399459
C       0.347228   -2.301181   -1.965790
O       0.837315   -2.338800   -3.052834
C       0.879396   -1.889314   -0.557592
O       1.110192   -0.486397   -0.401757
H       0.729727    1.822229    0.885399
H       0.094086    1.999201   -0.749136
H      -1.037443    1.836522    0.622362
H      -0.726389   -2.795018    0.826425
H      -1.275440   -3.702458   -1.442708
H      -1.878791   -2.076745   -1.845602
H       1.735810   -2.448341   -0.175828
