18

N      -0.003025    1.249164    0.335973
C      -0.011153    0.043122   -0.308065
O       0.961109   -0.374532   -0.917575
C      -1.267839   -0.746353   -0.170888
C      -1.601369   -1.745139   -1.283465
C      -1.136214   -2.248084    0.023676
C       0.086621   -3.064236    0.417650
C      -0.888369   -3.735277    1.409709
O      -1.995655   -2.929152    0.928739
H       0.801328    1.841513    0.209140
H      -0.838102    1.650537    0.724514
H      -2.107797   -0.291584    0.344721
H      -2.649579   -1.869557   -1.531392
H      -0.899001   -1.772334   -2.110000
H       0.472109   -3.714335   -0.368930
H       0.910857   -2.499602    0.851356
H      -1.076103   -4.802881    1.254969
H      -0.689705   -3.551439    2.471474
