17

N       0.034989    1.466865    0.125648
C       0.002158    0.001100   -0.017787
C      -1.393247   -0.454519    0.123646
N      -2.485261   -0.823539    0.198882
C       0.603752   -0.540062   -1.294224
C       1.708820   -1.269682   -1.416892
C       1.978174   -1.553302   -2.865814
O       0.945606   -0.875110   -3.577007
C       0.028763   -0.279760   -2.666782
H       0.991391    1.781152   -0.013220
H      -0.525337    1.901353   -0.602083
H       0.561312   -0.418022    0.827375
H       2.336379   -1.631792   -0.611509
H       2.960471   -1.181496   -3.195630
H       1.949893   -2.632292   -3.088012
H      -0.972358   -0.724720   -2.780372
H      -0.066440    0.793898   -2.892456
