23

C       0.132633    1.588042    0.015463
C       0.036173    0.060843    0.003242
C       0.631359   -0.558381   -1.286602
C       1.035026   -2.026214   -1.069728
C       0.131559   -2.711545    0.000799
C       1.054408   -2.043316    1.047280
O       1.210352   -2.765909    2.244967
C       2.181322   -2.093256   -0.023272
C       0.645735   -0.578493    1.278005
H       1.179368    1.914285    0.008910
H      -0.356616    2.023494   -0.862592
H      -0.343008    2.010807    0.907182
H      -1.029284   -0.197740    0.010548
H      -0.103548   -0.470964   -2.095776
H       1.515063    0.008257   -1.610108
H       1.186329   -2.552254   -2.014109
H      -0.939272   -2.493463    0.023128
H       0.281828   -3.793779    0.010988
H       1.745842   -2.238473    2.847938
H       2.673832   -3.069014   -0.015114
H       2.931665   -1.295352   -0.028185
H       1.529443   -0.011893    1.607323
H      -0.084029   -0.535347    2.095217
