18

C      -0.074103    1.557291    0.199059
C       0.044469    0.072514    0.062342
N      -0.793279   -0.879053    0.831678
C       0.692358   -0.939418    0.922814
C       1.235160   -1.714347   -0.301090
C       0.178950   -2.143183   -1.243042
C       0.535628   -0.661790   -1.229150
C       1.179929   -0.038175   -2.384336
O       1.725279   -0.644815   -3.282984
H       0.828162    2.064198   -0.159986
H      -0.924153    1.944639   -0.374928
H      -0.218141    1.836663    1.248201
H      -1.119230   -0.386425    1.663086
H       1.204305   -0.825296    1.869406
H       2.273076   -2.000771   -0.407737
H       0.536825   -2.635376   -2.140762
H      -0.794607   -2.436011   -0.873601
H       1.151213    1.074959   -2.392504
