20

C       0.126605    1.525482    0.002879
C      -0.003313    0.030281    0.061463
C       1.140627   -0.908463   -0.228397
C       0.467041   -0.984619    1.116230
C       1.210054   -0.760751    2.413218
C       1.927579   -1.958202    2.862246
N       2.481829   -2.913249    3.203004
C      -0.843001   -1.769511    0.982080
C      -1.323723   -0.741491   -0.094124
H       1.113518    1.858410    0.341799
H      -0.003702    1.889860   -1.023342
H      -0.627946    2.019495    0.625875
H       1.033678   -1.722165   -0.942983
H       2.125089   -0.448764   -0.229043
H       1.936407    0.053032    2.303169
H       0.518496   -0.459068    3.210073
H      -0.744990   -2.812967    0.667405
H      -1.455770   -1.736694    1.886845
H      -2.191747   -0.168254    0.241482
H      -1.531698   -1.133699   -1.094878
