18

C      -0.148678    1.554033   -0.027471
C       0.053918    0.035730   -0.006281
N       0.710952   -0.441733    1.198403
C       2.072817   -0.725897    1.270724
O       2.869332   -0.570360    0.375287
C       2.255748   -1.266617    2.690925
N       0.938768   -1.237534    3.320079
C       0.135737   -0.783598    2.429000
N      -1.229479   -0.684185    2.575798
H       0.813939    2.067534    0.041318
H      -0.635423    1.856962   -0.959467
H      -0.773621    1.896257    0.804840
H      -0.899599   -0.491513   -0.115679
H       0.700470   -0.261867   -0.836701
H       2.669835   -2.281572    2.652010
H       2.978906   -0.651524    3.239567
H      -1.513999   -0.822075    3.535876
H      -1.667236    0.117601    2.146021
