18

O      -0.201064    1.338027    0.028852
C       0.064472   -0.051181   -0.070688
C       0.866720   -0.355521   -1.274372
N       1.533493   -0.566773   -2.194416
C       0.743635   -0.605730    1.183239
C       0.001897   -0.434830    2.537070
C       0.430209   -1.882683    2.904593
C       0.735494   -2.145443    1.402410
O      -0.360684   -2.695051    0.693447
H       0.641021    1.802543    0.098358
H      -0.909221   -0.533774   -0.184816
H       1.769380   -0.226510    1.243787
H       0.337674    0.372828    3.189065
H      -1.077357   -0.344150    2.395248
H       1.336263   -1.909144    3.516366
H      -0.323221   -2.532465    3.356390
H       1.664220   -2.678374    1.165677
H      -0.443975   -3.622746    0.934451
