21

O       0.169570   -0.048714    0.173750
C       0.014292    1.143463    0.032457
C      -1.373197    1.771999    0.061539
C      -1.681358    2.555597    1.361096
C      -0.627465    3.585232    1.793120
C       0.100854    4.308745    0.622048
C       1.267142    3.286878    0.755817
C       0.749751    2.972941    2.191243
C       1.207264    2.074692   -0.188433
H      -1.470864    2.445930   -0.797801
H      -2.101529    0.966223   -0.057927
H      -2.643390    3.061457    1.218122
H      -1.826774    1.839253    2.179114
H      -1.071694    4.242206    2.546098
H      -0.410658    4.384346   -0.341955
H       0.423892    5.311636    0.913617
H       2.268693    3.719974    0.693030
H       1.255124    3.576303    2.949580
H       0.765649    1.927194    2.514066
H       2.104345    1.459757   -0.074225
H       1.177582    2.423932   -1.230935
