21

C       0.006268    1.550550    0.027046
C      -0.061020    0.017179   -0.020589
C      -1.535731   -0.424200   -0.084239
C       0.738906   -0.508793   -1.226492
C       0.769473   -2.029544   -1.263021
O       1.135388   -2.649077   -0.018274
C       0.916661   -2.067760    1.187208
O       1.043198   -2.730209    2.181131
C       0.615900   -0.574801    1.229493
H       1.043296    1.903132    0.039591
H      -0.487904    1.991686   -0.845535
H      -0.490300    1.937944    0.923300
H      -2.008680   -0.082495   -1.011318
H      -1.650046   -1.511297   -0.029246
H      -2.097520    0.001805    0.753386
H       0.310670   -0.149635   -2.169839
H       1.763795   -0.120963   -1.171624
H      -0.208339   -2.431323   -1.553836
H       1.501176   -2.390213   -1.991013
H       1.586827   -0.084796    1.384704
H       0.033102   -0.396520    2.136966
