17

C      -0.050023    1.430065   -0.039472
O       1.194373    2.061109    0.048156
C       1.921705    2.165251   -1.158709
C       2.187786    0.850292   -1.875280
O       2.719604   -0.196018   -1.021312
C       1.725337   -1.103606   -1.481107
C       0.342648   -0.650710   -1.140100
O       0.024361    0.028830    0.035539
C       1.025748   -0.038438   -2.334265
H      -0.611587    1.740060    0.844615
H      -0.578425    1.738256   -0.957027
H       1.412677    2.836993   -1.872365
H       2.874184    2.629637   -0.883912
H       2.883877    1.038046   -2.704629
H       2.025095   -2.126908   -1.676766
H      -0.420524   -1.376306   -1.420372
H       0.622729   -0.062431   -3.338153
