15

O       0.086330    1.430090    0.128276
C       0.085997    0.012166    0.036416
C      -1.374097   -0.600862   -0.072244
N      -1.469990   -1.394439   -1.344646
C      -0.231971   -1.235308   -1.936696
C       0.700399   -0.545251   -1.208263
N       1.886491   -0.561194   -1.869937
N       1.737482   -1.219593   -2.979139
N       0.420353   -1.658240   -3.030132
H       0.104894    1.779364   -0.769352
H       0.560142   -0.331728    0.960111
H      -1.587765   -1.263011    0.770665
H      -2.097858    0.218345   -0.062177
H      -2.279078   -1.188753   -1.916734
H       0.116988   -2.202264   -3.820250
