15

C      -0.012960    1.466712    0.010486
N       0.018593    0.021524    0.039656
C       0.012634   -0.755747   -1.130211
O      -0.019069   -0.369443   -2.281297
N       0.051555   -2.027894   -0.615006
N       0.080016   -2.075415    0.761947
C       0.059424   -0.827111    1.125104
C       0.077521   -0.365897    2.538842
H       0.879485    1.895439    0.477029
H      -0.042038    1.756283   -1.041941
H      -0.901806    1.857218    0.515800
H       0.059076   -2.876634   -1.151592
H       0.108581   -1.238266    3.192861
H       0.952435    0.260605    2.745487
H      -0.813979    0.223750    2.780075
