20

C       0.258242    1.513737    0.178935
C       0.304521    0.002895   -0.034069
C       0.910581   -0.409493   -1.370204
O       1.443827    0.388884   -2.106290
C       0.784332   -1.887462   -1.736244
C       1.690321   -2.314303   -2.866215
C       3.051493   -2.890671   -2.573289
C       1.955565   -3.775989   -3.116678
H       1.257349    1.947011    0.092063
H      -0.370075    1.996035   -0.574873
H      -0.143157    1.754648    1.167251
H       0.898921   -0.486163    0.751587
H      -0.693957   -0.447753    0.047321
H       0.952504   -2.499414   -0.840358
H      -0.272646   -2.050939   -2.000235
H       1.627602   -1.672950   -3.738447
H       3.874682   -2.624497   -3.226507
H       3.336842   -3.020646   -1.533957
H       1.507868   -4.499006   -2.442004
H       2.028760   -4.117932   -4.143187
