22

C       0.863007   -0.286313    1.308218
C       0.022548   -0.019648    0.056675
C       0.696568   -0.457762   -1.254576
C       0.885534   -1.978142   -1.378802
C       1.403506   -2.352608   -2.768051
C       0.389573   -1.935869   -3.829785
N      -0.031378   -0.556954   -3.625440
C      -0.043163    0.153457   -2.455761
O      -0.573664    1.249976   -2.398116
H       1.050499   -1.353765    1.465236
H       1.835632    0.215545    1.246167
H       0.354767    0.089198    2.201734
H      -0.947108   -0.527421    0.146443
H      -0.200067    1.046624   -0.028620
H       1.695161    0.006726   -1.286867
H       1.574639   -2.332447   -0.606145
H      -0.073801   -2.482860   -1.196499
H       2.359792   -1.848332   -2.954565
H       1.584116   -3.429255   -2.847845
H       0.821158   -2.026055   -4.833041
H      -0.478328   -2.613026   -3.792851
H      -0.552533   -0.105394   -4.363873
