21

C      -0.041582    1.488697    0.184850
C      -0.001551   -0.021869    0.029215
C       1.082387   -0.592942   -0.856359
C       1.174956   -0.745156    0.644071
C      -1.348633   -0.731813    0.040581
O      -1.118941   -2.112836   -0.114605
C      -2.315146   -0.314533    1.185771
O      -3.109940    0.466529    0.272673
C      -2.443381   -0.104921   -0.869500
H       0.975867    1.889462    0.163401
H      -0.600399    1.974837   -0.621118
H      -0.493430    1.797026    1.132979
H       0.854403   -1.483937   -1.427559
H       1.748077    0.108646   -1.347927
H       1.904171   -0.148049    1.181388
H       1.007078   -1.735175    1.048811
H      -1.969034   -2.563788   -0.107762
H      -2.874859   -1.168962    1.596690
H      -1.918078    0.281570    2.013439
H      -2.143834    0.650349   -1.602895
H      -3.060030   -0.866296   -1.371754
