21

C      -0.039568    1.600974   -0.187193
C       0.006066    0.068653   -0.085181
C      -1.398715   -0.402070   -0.385230
O      -2.171313   -0.881275    0.406343
C       1.169059   -0.637805   -0.880617
C       2.080522   -0.282858    0.329319
C       0.773696   -0.536355    1.138906
C       0.604708   -2.057355    0.933690
C       0.881906   -2.131166   -0.608458
H       0.946709    2.059299   -0.100933
H      -0.461351    1.912126   -1.150303
H      -0.675050    2.018013    0.601310
H      -1.706910   -0.232116   -1.446703
H       1.417682   -0.344402   -1.901730
H       2.920475   -0.955693    0.525477
H       2.431013    0.747775    0.342108
H       0.629994   -0.143186    2.145262
H       1.341474   -2.619628    1.513735
H      -0.390110   -2.410028    1.204320
H       0.022942   -2.507033   -1.173078
H       1.739948   -2.761825   -0.856462
