18

O      -0.047958    1.424854   -0.248713
C      -0.026145    0.092277    0.209635
C      -1.434671   -0.508454    0.162292
C      -1.939921   -0.677514   -1.253185
N      -2.060943    0.115426   -2.221204
O      -2.127015   -2.036955   -1.156757
C      -1.629707   -2.023180    0.212858
C      -0.776536   -3.130333    0.722992
C      -2.197722   -2.931532    1.241261
H      -0.486065    1.420969   -1.112771
H       0.657927   -0.538397   -0.380866
H       0.350039    0.113632    1.238253
H      -2.111928    0.061170    0.803515
H      -2.366338   -0.356507   -3.073467
H      -0.601587   -3.967625    0.056582
H       0.055491   -2.885404    1.374664
H      -2.337719   -2.547698    2.246360
H      -2.950415   -3.640152    0.913953
