20

C      -0.421882    1.455497    0.888341
C       0.129006    0.113056    0.436530
C      -0.684430   -1.059560    0.968433
C       0.530820    0.003088   -1.057352
C       1.965361   -0.255159   -0.521974
C       3.067591    0.704408   -0.953956
O       1.537445   -0.020803    0.834954
C       2.406518   -1.653851   -0.695850
N       2.744430   -2.749524   -0.842872
H       0.194061    2.277905    0.514531
H      -1.445462    1.593306    0.523740
H      -0.438909    1.510760    1.981476
H      -1.717812   -1.005167    0.609272
H      -0.255325   -2.012355    0.646935
H      -0.699406   -1.043395    2.062563
H       0.075322   -0.811061   -1.620751
H       0.449396    0.933523   -1.621884
H       2.722310    1.733800   -0.831092
H       3.959095    0.557615   -0.338417
H       3.335859    0.537872   -2.001610
