16

C       0.114149    1.385185   -0.384360
C       0.009361    0.012389    0.292579
O       0.380639    0.118472    1.647948
C      -1.378869   -0.568188    0.208095
N      -2.079799   -0.903526    1.268267
C      -3.275803   -1.396191    0.793859
C      -3.293429   -1.357544   -0.572265
N      -2.071612   -0.824357   -0.935977
H       1.126831    1.775440   -0.254097
H      -0.091949    1.322834   -1.459150
H      -0.591281    2.086034    0.070445
H       0.705983   -0.675622   -0.218356
H      -0.364073   -0.236854    2.158407
H      -4.046354   -1.747447    1.462348
H      -4.030403   -1.645810   -1.302938
H      -1.754451   -0.658779   -1.876256
