17

C      -0.044000    1.440264    0.043388
C      -0.026135   -0.015286    0.053343
C       0.012969   -1.220595    0.061941
C       0.030275   -2.650716    0.057855
C      -0.455314   -3.431033    1.266293
C      -1.341295   -3.397367    0.051501
N      -2.598489   -2.702221    0.116843
C      -1.385095   -4.583514   -0.772026
N      -1.396403   -5.518952   -1.452048
H       0.949717    1.841448   -0.183822
H      -0.737712    1.828723   -0.710407
H      -0.348176    1.842658    1.015865
H       0.819732   -3.119116   -0.522030
H       0.051183   -4.357727    1.506883
H      -0.799392   -2.862044    2.122989
H      -2.502447   -1.886959    0.714357
H      -2.848085   -2.354257   -0.805539
