17

C      -0.046385    1.488524   -0.011149
C      -0.055164   -0.013571   -0.014018
C      -0.928187   -0.852641    0.853565
O      -1.917389   -1.737420    0.397676
C       0.564454   -1.050707    0.952797
N       1.329968   -1.733538   -0.153599
C       0.414694   -2.255148   -1.200586
C       0.671339   -0.801305   -1.126597
H       0.957489    1.879200   -0.212819
H      -0.718336    1.886507   -0.781766
H      -0.374643    1.886474    0.953782
H      -1.260144   -0.266048    1.715907
H      -2.028337   -2.419613    1.069810
H       1.097911   -0.919464    1.888155
H       0.970520   -2.796428   -1.962356
H      -0.550447   -2.660486   -0.939581
H       1.272066   -0.272965   -1.861550
