19

C       0.874319    1.522473   -1.256398
O       1.367830    0.234340   -0.924491
C       0.776100   -0.825231   -1.639227
C       1.787586   -1.945548   -1.824323
C       3.230474   -1.736922   -1.679065
O       2.471135   -2.394474   -0.658015
C      -0.456917   -1.375645   -0.930587
C      -0.612468   -1.267552    0.521085
O      -1.365936   -0.431051   -0.372344
H       1.043787    1.750574   -2.319839
H      -0.192906    1.613836   -1.032985
H       1.436824    2.237381   -0.651033
H       0.477116   -0.485945   -2.646368
H       1.440375   -2.747944   -2.478902
H       3.922564   -2.373425   -2.228663
H       3.589719   -0.746529   -1.415320
H      -0.934886   -2.211432   -1.446127
H      -1.196063   -2.013239    1.057313
H       0.158043   -0.755742    1.089829
