20

C      -0.772010    1.233125   -0.045977
C       0.185633    0.044621    0.008388
C       1.201105   -0.006637   -1.185699
C       2.380889   -0.635144   -0.519829
C       2.316999   -0.657583    0.848516
C       1.035330   -0.032904    1.323631
C       3.533726   -1.214795    1.330099
C       4.294818   -1.513192    0.218392
N       3.587102   -1.148089   -0.910821
H      -0.223659    2.181289   -0.000160
H      -1.360785    1.232939   -0.969961
H      -1.473928    1.214948    0.794753
H      -0.402666   -0.879373   -0.043123
H       0.794977   -0.569913   -2.034683
H       1.423644    1.005213   -1.557394
H       1.200450    0.972547    1.738161
H       0.511426   -0.604004    2.098694
H       3.829624   -1.388495    2.353782
H       5.269944   -1.966084    0.133033
H       3.904919   -1.276163   -1.855271
