23

C      -0.509944    1.523587    0.078188
C      -0.049660    0.052300    0.026946
C       0.444002   -0.313464   -1.391523
C       0.747078   -1.780617   -1.588766
C       1.847791   -2.469299   -1.281570
C       3.140140   -2.026846   -0.647576
C       3.177908   -0.632446    0.011107
C       2.217192   -0.487299    1.169790
C       0.908682   -0.226361    1.161084
H       0.325152    2.198815   -0.137456
H      -1.300666    1.713530   -0.655538
H      -0.898896    1.783101    1.067922
H      -0.938570   -0.566826    0.222516
H      -0.352531   -0.034242   -2.091355
H       1.294987    0.317450   -1.658117
H      -0.070142   -2.351094   -2.027727
H       1.833594   -3.533233   -1.517947
H       3.411178   -2.776552    0.109395
H       3.941346   -2.084256   -1.400079
H       4.195192   -0.473209    0.386017
H       3.021426    0.139331   -0.744371
H       2.666487   -0.657815    2.147208
H       0.422235   -0.180793    2.136187
