20

C       0.054773    1.586600    0.252478
C      -0.018446    0.080989   -0.062646
C      -1.405502   -0.447851   -0.171475
C      -2.186337   -0.850212   -1.217312
N      -1.894839   -0.831395   -2.594216
C      -3.464466   -1.231863   -0.666664
C      -4.646322   -1.734114   -1.432953
C      -3.352872   -1.023871    0.671018
O      -2.126528   -0.545546    0.995896
H       1.094137    1.918109    0.344256
H      -0.426369    2.174506   -0.535055
H      -0.457426    1.805098    1.193760
H       0.505778   -0.124304   -1.004261
H       0.522895   -0.475832    0.713585
H      -0.908029   -0.701678   -2.780374
H      -2.202786   -1.675854   -3.062438
H      -4.438507   -2.691706   -1.928408
H      -5.506633   -1.888650   -0.776016
H      -4.942530   -1.027331   -2.216844
H      -4.038379   -1.166179    1.491146
