16

O      -0.026502    1.417211    0.096429
C      -0.035989    0.020399   -0.010361
C      -1.453858   -0.540880    0.055706
C      -1.372375   -2.052046   -0.164514
C      -0.747485   -2.343768   -1.522488
O       0.491001   -1.640159   -1.772910
C       0.702502   -0.406326   -1.283523
O       1.520088    0.319576   -1.791461
H       0.714475    1.713285   -0.453657
H       0.546301   -0.439123    0.812444
H      -1.902621   -0.292848    1.021538
H      -2.066685   -0.065340   -0.719626
H      -0.774892   -2.516184    0.629485
H      -2.363201   -2.516921   -0.133858
H      -0.498707   -3.400874   -1.638750
H      -1.439784   -2.067813   -2.327748
