23

C      -0.010198    1.514037    0.132777
C       1.304879    0.785234    0.022337
C       0.003673    0.010024    0.030323
C      -0.087892   -0.687739   -1.346231
C       1.412195   -0.892190   -1.675711
C       1.949619    0.526021   -1.358720
C       1.502865    1.506504   -2.476689
C       0.281701    0.989076   -3.279280
C      -0.747464    0.166058   -2.462827
H      -0.254310    1.933743    1.104134
H      -0.373317    2.114972   -0.693025
H       1.962711    0.786805    0.884839
H      -0.303063   -0.563056    0.898739
H      -0.627907   -1.632661   -1.245018
H       1.852790   -1.624769   -0.991375
H       1.606817   -1.229445   -2.699875
H       3.038547    0.551449   -1.267464
H       1.296948    2.489126   -2.040930
H       2.330136    1.658765   -3.178418
H      -0.219286    1.824970   -3.779072
H       0.657571    0.349738   -4.085145
H      -1.281705   -0.492602   -3.156180
H      -1.509430    0.817446   -2.023574
