13

O       0.143195    1.386897   -0.067367
C       0.088349    0.003451   -0.048287
C       1.028854   -0.534838   -1.026330
N       1.763511   -0.990907   -1.791265
C       0.030618   -0.701085    1.362635
N      -1.371757   -0.092029    1.445116
C      -1.339171   -0.665220    0.025680
C      -0.664984   -1.896155    0.672589
O      -0.793021   -3.072672    0.772208
H      -0.499568    1.677262    0.598975
H       0.747657   -0.630804    2.176954
H      -1.983639   -0.634949    2.057461
H      -2.168216   -0.554461   -0.669026
