15

O       0.274124    1.219331   -0.614993
C       0.104011   -0.160176   -0.396769
C      -1.327182   -0.491508    0.122972
C      -2.359461    0.129452   -0.830996
O      -3.129052    0.989046   -0.508917
C      -1.519221   -1.928103    0.207407
C      -1.661537   -3.127493    0.248708
C      -1.848367   -4.557286    0.283301
O      -1.534101   -5.262314    1.213705
H       0.238593    1.676789    0.231803
H       0.255161   -0.646126   -1.365367
H       0.838868   -0.577490    0.304209
H      -1.473158   -0.027237    1.106056
H      -2.327160   -0.289421   -1.860260
H      -2.313562   -4.975798   -0.631739
