16

N       0.166906   -1.304645    0.214288
C       0.053624   -0.156573    0.154742
C      -0.109264    1.297381    0.079497
C       1.204463    2.045447    0.294146
C       2.378693    1.461351    0.948577
O       2.314426    1.605279   -0.476375
C      -0.717034    1.696313   -1.263428
C      -2.165616    1.813343   -1.443587
O      -1.342440    2.974161   -1.274555
H      -0.809249    1.605236    0.866676
H       1.063915    3.125995    0.321628
H       3.087716    2.117151    1.450159
H       2.340510    0.436412    1.310522
H      -0.085677    1.480744   -2.124215
H      -2.595963    1.686503   -2.434580
H      -2.830999    1.587816   -0.611621
