15

O      -0.243454    0.135820    0.390421
C      -0.012332    1.185206   -0.146663
C       1.319701    1.913904   -0.050001
N       1.597015    2.619916   -1.299213
C       2.708623    3.571542   -1.264076
C       2.731744    4.256330   -2.651249
O       3.595826    4.055069   -3.455277
C       2.487614    4.592347   -0.234563
N       2.325154    5.416200    0.559036
H      -0.771051    1.723938   -0.756270
H       1.208213    2.660628    0.748635
H       2.098094    1.204675    0.267464
H       1.788195    1.951055   -2.039098
H       3.698681    3.117928   -1.098286
H       1.851028    4.898987   -2.847583
