18

O      -0.147254    0.478009    0.928493
C       0.102549    1.195708   -0.001670
C       1.353987    2.052713   -0.091068
O       1.304274    2.781833   -1.291098
C       2.428252    3.620940   -1.499483
C       2.200738    4.384437   -2.794716
N       1.003002    5.199939   -2.728761
C       1.010237    6.545534   -2.923514
O       1.987072    7.207170   -3.205037
H      -0.567435    1.292561   -0.884778
H       1.399653    2.711029    0.792475
H       2.237060    1.393294   -0.046568
H       2.541465    4.321518   -0.657515
H       3.349172    3.020671   -1.569964
H       3.036288    5.059613   -2.990552
H       2.131214    3.670835   -3.625116
H       0.144886    4.746623   -2.458450
H      -0.000135    6.982242   -2.797890
