20

C       0.073579    1.521428   -0.031104
C       0.020941    0.067928    0.020158
C      -0.015694   -1.135835    0.072093
C      -0.042957   -2.581999    0.085182
N      -0.092898   -3.297995    1.468965
C      -1.579697   -2.896790    1.477627
C      -1.394892   -3.365993    0.013858
C      -2.389027   -3.400170   -1.118066
C      -0.576172   -4.509994    0.654703
H       0.805814    1.866939   -0.769126
H      -0.898537    1.948321   -0.301632
H       0.360292    1.939308    0.940294
H       0.764177   -2.987595   -0.534812
H      -2.187691   -3.521272    2.138126
H      -1.744909   -1.834206    1.663957
H      -2.745852   -2.390976   -1.349514
H      -1.938802   -3.815551   -2.026259
H      -3.257383   -4.016213   -0.860463
H       0.211370   -4.982891    0.059713
H      -1.113615   -5.244566    1.259773
