15

O       0.533587    0.092265   -0.119884
C       0.181529    1.226629   -0.010935
C      -1.185569    1.956161   -0.215791
C      -0.386677    3.267303   -0.094948
O       0.190911    3.250709    1.201465
C       0.905280    2.560979    0.149609
C      -0.620701    4.566258   -0.773933
C      -0.764367    5.813699   -0.007050
O       0.443208    5.509245   -0.707691
H      -1.581817    1.740929   -1.212956
H      -1.959598    1.806674    0.538867
H       1.929221    2.859506   -0.037803
H      -1.107819    4.484981   -1.746026
H      -1.351820    6.632535   -0.418605
H      -0.690609    5.769405    1.076898
