22

C       0.561607   -0.436258    1.736074
C       0.139485   -0.077430    0.306408
C      -1.206826   -0.658469   -0.135597
C      -2.383819   -0.150052    0.729473
C      -2.544168    1.302905    0.683270
N      -2.655758    2.452337    0.632165
C      -1.533552   -0.542427   -1.659462
C      -1.977220   -2.029680   -1.665049
C      -1.288911   -2.213772   -0.285862
H       1.573967   -0.075598    1.940050
H      -0.096622    0.014386    2.485597
H       0.558240   -1.520494    1.893949
H       0.115191    1.013703    0.191038
H       0.902560   -0.440634   -0.392874
H      -3.320702   -0.606499    0.390460
H      -2.250071   -0.453259    1.773597
H      -2.271133    0.210013   -1.950493
H      -0.627329   -0.376903   -2.248310
H      -3.062894   -2.147513   -1.613747
H      -1.610697   -2.651122   -2.484436
H      -0.293189   -2.657110   -0.374960
H      -1.839086   -2.762020    0.484382
