18

C       0.039066    1.564280   -0.069829
C       0.052361    0.047722    0.025204
O       0.762286   -0.480967   -1.093929
C       1.225178   -1.789299   -0.757582
C       1.499596   -1.749448    0.733679
C       2.256905   -0.535135    1.237267
C       0.749904   -0.554163    1.244735
O       0.034023   -0.617701    2.437729
H       1.056805    1.964782   -0.051741
H      -0.442544    1.887193   -0.996726
H      -0.522204    1.989002    0.769302
H      -0.985302   -0.329453    0.038542
H       0.460933   -2.550801   -0.981986
H       2.104937   -1.990028   -1.377906
H       1.532822   -2.669443    1.304260
H       2.738135   -0.642141    2.203095
H       2.779802    0.090930    0.520975
H       0.123351    0.230549    2.885221
