15

O      -0.015433    1.333192   -0.430186
C      -0.101944    0.052286    0.162951
C      -1.468878   -0.538630    0.037058
O      -2.527066    0.047221    0.818725
C      -3.320169   -1.123391    0.477453
C      -2.023909   -1.909244    0.062660
C      -2.080709   -1.069172   -1.265675
C      -3.559019   -0.952656   -1.048949
O      -4.526105   -0.964767   -1.751955
H      -0.673437    1.893857   -0.004278
H       0.620672   -0.587452   -0.353690
H       0.170303    0.076290    1.229077
H      -4.089050   -1.386630    1.198175
H      -1.650174   -2.909561    0.222008
H      -1.514360   -1.210514   -2.175178
