15

C      -0.127760    1.427840    0.103646
C      -0.101067   -0.054628    0.051098
C      -1.043300   -0.986706   -0.269362
O      -2.315414   -0.722285   -0.696033
C      -3.336513   -1.351913   -0.046837
N      -4.508925   -1.222164   -0.480893
C      -0.373966   -2.234119   -0.144755
N       0.869421   -2.071190    0.232187
O       1.044998   -0.693171    0.348024
H       0.577183    1.860283   -0.613858
H      -1.132168    1.780481   -0.138563
H       0.145870    1.790847    1.099441
H      -2.998694   -1.920003    0.828105
H      -5.161358   -1.732034    0.110935
H      -0.754830   -3.230288   -0.319476
