17

C       0.190028    1.542861    0.157245
C      -0.023539    0.071576    0.088747
C      -1.137015   -0.707807    0.006148
C      -2.585942   -0.361150   -0.067346
O      -3.240248   -1.024033   -1.156837
C      -0.604263   -2.041105   -0.006675
N      -1.365673   -3.190512   -0.034247
N       0.707470   -2.054137    0.055222
O       1.077616   -0.695167    0.131096
H       0.930398    1.860078   -0.583579
H      -0.744050    2.077146   -0.029048
H       0.562979    1.840277    1.143283
H      -3.119786   -0.710177    0.823550
H      -2.725545    0.727769   -0.124067
H      -2.778634   -0.768805   -1.963430
H      -2.222161   -3.079672   -0.561017
H      -0.847253   -4.024048   -0.273155
