19

C       0.111349    1.480709   -0.095564
C       0.002173   -0.045189   -0.004711
O       0.704609   -0.545066    1.135979
C      -1.425251   -0.528709   -0.016526
C      -2.025547   -1.187962   -1.012372
C      -3.457501   -1.537517   -0.719057
C      -3.676760   -0.961280    0.689504
O      -4.702115   -0.991395    1.315516
C      -2.354388   -0.329996    1.158065
H       1.163178    1.779714   -0.077810
H      -0.346132    1.852974   -1.016939
H      -0.396286    1.964536    0.748009
H       0.519113   -0.486706   -0.864245
H       0.448397   -0.013062    1.896986
H      -1.538153   -1.456572   -1.943753
H      -4.179891   -1.099173   -1.419933
H      -3.656787   -2.617400   -0.715582
H      -2.005286   -0.835186    2.067956
H      -2.523366    0.719473    1.432217
