20

O       0.397190    0.855703   -0.845881
C       0.044643   -0.272477   -0.069203
C       0.554757   -0.268214    1.399387
C      -0.547626   -0.962324    2.252824
C      -1.557760   -1.513517    1.235356
O      -2.846453   -1.636013    1.794774
C      -1.449985   -0.522295    0.088124
C      -2.453288    0.545516   -0.125458
N      -2.392390   -0.638044   -1.016950
H       0.173147    1.643500   -0.338210
H       0.483428   -1.119884   -0.611212
H       1.525861   -0.762069    1.481818
H       0.704264    0.767417    1.724852
H      -0.152510   -1.739778    2.909899
H      -1.069741   -0.236383    2.883127
H      -1.210855   -2.494228    0.864726
H      -3.431132   -1.910290    1.077290
H      -3.327569    0.593342    0.515325
H      -2.117228    1.495425   -0.531284
H      -1.935214   -0.374371   -1.888480
