16

O       0.035709    1.475466   -0.097562
C      -0.004759    0.073503   -0.050190
C      -1.454161   -0.492168   -0.108069
C      -1.579433   -0.963932   -1.562509
O      -0.288257   -1.466090   -1.876482
C       0.639540   -0.548313   -1.339968
C       0.714099   -0.408700    1.190571
O       1.210882    0.352765    1.984925
H       0.487754    1.752124    0.716036
H      -1.573221   -1.346320    0.566868
H      -2.162667    0.286259    0.177940
H      -2.300333   -1.770631   -1.712156
H      -1.845174   -0.122651   -2.221406
H       0.830879    0.296826   -2.015995
H       1.578812   -1.082233   -1.163757
H       0.761734   -1.508938    1.323181
