17

C       0.252378    1.105107   -0.534994
N      -0.354782    0.045059    0.275030
C       0.514840   -0.520183    1.320697
C      -0.245421   -0.776458    2.539528
C      -0.882381   -0.980308    3.537286
C       1.110546   -1.869116    0.774941
O       0.107028   -2.623544    0.163943
C       2.231526   -1.591044   -0.157728
N       3.103373   -1.366410   -0.882692
H       1.100418    0.707090   -1.096305
H      -0.487716    1.465542   -1.253926
H       0.605650    1.959809    0.062693
H      -1.211899    0.373722    0.700403
H       1.348214    0.158405    1.557304
H      -1.438362   -1.162271    4.424195
H       1.514254   -2.443905    1.614086
H      -0.452671   -1.955936   -0.275063
