16

C       0.015799    1.460611    0.139447
C      -0.007427   -0.017938   -0.058527
C       0.712973   -0.937339   -1.070090
C       0.051727   -1.835919   -0.012229
O       0.511541   -0.898603    1.041485
C      -1.261245   -0.984404   -0.081635
O      -2.079392   -0.974383    1.037462
C      -2.083811   -1.039343   -1.286495
N      -2.696165   -1.073830   -2.265510
H       1.034072    1.806273    0.338756
H      -0.355242    1.962161   -0.759353
H      -0.624386    1.740877    0.981242
H       0.341298   -0.973357   -2.095339
H       1.799937   -0.904578   -1.006013
H       0.157433   -2.902298    0.181889
H      -1.457608   -0.952574    1.782617
