18

C      -0.051958    1.553311   -0.086787
C       0.098187    0.074948    0.010638
C       0.662067   -0.981079   -0.865153
C       1.377938   -1.665211    0.295587
C       0.348689   -0.943063    1.201096
C      -0.982524   -1.595755    0.754628
C      -2.166342   -1.119144    1.445637
C      -3.133687   -0.731246    2.044631
N      -0.827229   -0.928713   -0.593288
H       0.875457    2.066589    0.190199
H      -0.306957    1.833563   -1.113499
H      -0.850886    1.910811    0.571140
H       0.943770   -0.932965   -1.909237
H       1.411054   -2.759465    0.337681
H       2.385627   -1.260549    0.420999
H       0.555839   -0.721765    2.245768
H      -0.989288   -2.692272    0.705026
H      -3.996223   -0.393197    2.563583
