17

C       0.219527    1.570233   -0.186707
C       0.147429    0.084145    0.099611
O       0.410006   -0.397626    1.173349
C      -0.225229   -0.821455   -1.074143
N      -0.717600   -2.155927   -0.727475
C      -1.665046   -2.154251   -1.854543
C      -1.527222   -0.599834   -1.928982
C      -2.593584    0.138838   -1.273744
N      -3.440729    0.743208   -0.769501
H       0.750613    2.074058    0.621725
H       0.714028    1.769501   -1.143863
H      -0.796143    1.976864   -0.253842
H       0.637472   -0.809308   -1.765726
H      -0.036038   -2.903175   -0.686657
H      -1.298704   -2.615901   -2.782289
H      -2.656867   -2.548989   -1.619903
H      -1.366145   -0.188139   -2.925978
