13

N       0.007154    1.385557   -0.125363
C       0.011204    0.024167   -0.065075
C      -1.199329   -0.692201   -0.089746
O      -2.385367   -0.018831   -0.126926
C      -1.074182   -2.065734   -0.065851
F      -2.207723   -2.780168   -0.083060
N       0.065623   -2.722010   -0.024690
C       1.150269   -1.946082   -0.000628
N       1.186783   -0.616923   -0.014836
H       0.871462    1.845038    0.110159
H      -0.851259    1.866660    0.084385
H      -3.098915   -0.667918   -0.122318
H       2.108467   -2.456260    0.036914
