19

O       0.255208    1.127013    0.650791
C       0.010248   -0.245011    0.385961
C      -1.432270   -0.516461   -0.063794
C      -1.737736   -2.024100   -0.279616
C      -2.670635   -2.412314    0.858631
C      -2.245091   -2.123910    2.251424
N      -3.169489   -1.214812    1.559700
C      -2.515531   -0.042153    0.949231
H       0.102111    1.616519   -0.164166
H       0.707982   -0.635593   -0.372602
H       0.238329   -0.764261    1.322294
H      -1.565036    0.021877   -1.010878
H      -2.243468   -2.185320   -1.236530
H      -0.825053   -2.631020   -0.298120
H      -3.395472   -3.200632    0.673358
H      -2.686505   -2.672669    3.079061
H      -1.222651   -1.801181    2.427905
H      -2.090784    0.609659    1.718591
H      -3.295712    0.527267    0.433752
