15

C      -0.073716    1.438982    0.051427
C       0.001180   -0.010139    0.017482
C       0.068457   -1.212987   -0.009334
C       0.133441   -2.619832   -0.042663
N       1.179473   -3.390827    0.074109
C       0.630780   -4.647571   -0.036874
C       1.435887   -5.898563    0.033325
N      -0.667537   -4.657146   -0.210730
O      -1.014158   -3.305955   -0.216613
H       0.894667    1.886665   -0.194558
H      -0.812985    1.809591   -0.666349
H      -0.365493    1.791365    1.046776
H       1.959841   -5.957860    0.991813
H       0.790599   -6.770848   -0.079037
H       2.193470   -5.905574   -0.755826
