15

O       0.005384   -0.052995    0.168429
C      -0.009513    1.146637   -0.005834
C      -1.310606    1.946775   -0.090286
N      -1.223517    3.165719   -0.898385
C      -0.108476    4.016554   -0.477704
C       1.204710    3.275092   -0.271456
C       1.232613    1.950527   -0.093337
C       0.068636    5.114168   -1.440162
N       0.232780    5.966525   -2.201571
H      -2.100764    1.302372   -0.481839
H      -1.601468    2.223836    0.933695
H      -1.087991    2.914615   -1.873619
H      -0.387940    4.482861    0.482369
H       2.114179    3.870065   -0.258569
H       2.164269    1.410103    0.042344
