17

C       0.046853    1.494737   -0.090318
C       0.050643   -0.018454    0.019571
O       0.625244   -0.532859   -1.191802
C       0.719682   -1.876096   -1.289327
N       0.323529   -2.648589   -0.364332
C       0.437801   -4.084814   -0.497433
C       1.310887   -2.258961   -2.546176
C       1.801069   -2.614130   -3.585097
H       1.063447    1.880154   -0.208694
H      -0.546645    1.822363   -0.948483
H      -0.384951    1.931030    0.815357
H       0.640567   -0.368181    0.873624
H      -0.959241   -0.425424    0.139070
H       0.884561   -4.420635   -1.441917
H       1.039096   -4.475021    0.332061
H      -0.557700   -4.533999   -0.402224
H       2.235230   -2.917635   -4.506166
