18

N       0.115225    0.408867    0.829684
C      -0.404993   -0.539448   -0.005523
N       0.534421   -1.423929   -0.581571
C       1.859267   -1.571505   -0.301759
O       2.503438   -0.923820    0.502487
N      -1.618554   -0.709071   -0.371670
C      -2.590312    0.208204    0.133104
C      -4.037739   -0.080652   -0.142300
C      -3.509940   -0.225573    1.264479
H       1.076556    0.275289    1.120181
H      -0.527036    0.814711    1.489620
H       0.109779   -2.042019   -1.257919
H       2.311886   -2.375495   -0.909656
H      -2.302316    1.261182    0.129433
H      -4.698594    0.749582   -0.365063
H      -4.244665   -0.991658   -0.692139
H      -3.369855   -1.230893    1.644687
H      -3.801169    0.507200    2.009707
