16

O      -0.454502    1.722789    0.435113
N       0.008387    0.482670    0.848982
C      -0.704835   -0.490347    0.399191
C      -0.261871   -1.882464    0.790734
C       0.245784   -2.694324   -0.384044
C       0.159688   -4.159331   -0.399751
O      -0.727962   -3.362749   -1.185352
C      -1.851347   -0.334222   -0.429586
C      -2.830692   -0.241272   -1.122839
H       0.168318    2.326489    0.855402
H       0.536840   -1.777135    1.531723
H      -1.097363   -2.420323    1.252080
H       1.044530   -2.222115   -0.958057
H       0.891989   -4.739498   -0.959177
H      -0.298269   -4.678219    0.441902
H      -3.690463   -0.158042   -1.741052
