16

O      -0.212598    0.103420   -0.491506
C      -0.110094    1.245037   -0.179602
N      -1.058662    2.300569   -0.059994
C      -0.173068    3.048548    0.851846
C       0.847022    4.257354    0.765473
C       1.921865    3.136981    1.201416
C       1.002724    2.303255    0.254475
O       1.271009    2.946441   -1.018860
C       1.122419    4.347657   -0.724164
H      -2.047045    2.132556    0.074502
H      -0.343986    2.791227    1.899974
H       0.709908    5.174099    1.337760
H       2.954228    3.289899    0.883785
H       1.857013    2.877060    2.257240
H       0.285878    4.768955   -1.293757
H       2.040579    4.889584   -0.977171
