19

C      -0.036130    1.428841   -0.096060
C       0.005146   -0.060840    0.044535
N      -0.001266   -0.841719   -1.044115
N       0.067822   -2.086037   -0.544784
C       0.003514   -3.369622   -1.216164
C       0.415217   -4.328438   -0.069419
C       0.101812   -3.566101    1.256335
C       0.099227   -2.136990    0.806118
C       0.063769   -0.827323    1.239544
H       0.864946    1.897929    0.315205
H      -0.111513    1.699486   -1.151432
H      -0.894016    1.858592    0.432973
H      -1.012953   -3.563434   -1.580965
H       0.683340   -3.400921   -2.071105
H      -0.099079   -5.289157   -0.133447
H       1.489422   -4.522968   -0.130598
H      -0.877579   -3.853017    1.659052
H       0.840125   -3.777896    2.034363
H       0.084908   -0.462911    2.254071
