19

C      -0.097781    1.571090   -0.104497
C       0.054133    0.060474   -0.009169
N       1.149020   -0.516346   -0.803786
C       1.774008   -1.153752    0.237845
O       2.735276   -1.874936    0.301874
C       0.742293   -0.591882    1.255220
C       1.350482    0.355440    2.286504
C      -0.083929   -1.693039    1.919394
H       0.850438    2.084663    0.072473
H      -0.454971    1.858005   -1.099589
H      -0.831466    1.931369    0.624198
H      -0.909438   -0.419047   -0.225420
H       1.289774   -0.585165   -1.801669
H       1.971849    1.127688    1.825580
H       0.571374    0.849464    2.877757
H       1.986743   -0.210404    2.973883
H       0.548000   -2.292746    2.581696
H      -0.896243   -1.266370    2.518469
H      -0.525005   -2.367683    1.178647
