20

C       0.048040    1.602319   -0.076583
C       0.020976    0.064397   -0.008491
C       0.716294   -0.485625    1.216894
C       2.075583   -0.790723    1.173478
C       2.722400   -1.269056    2.306760
C       1.968811   -1.432246    3.461845
N       0.665285   -1.155440    3.532177
C       0.045068   -0.691488    2.439225
C      -1.431222   -0.414827    2.595065
H       1.077703    1.972923   -0.099892
H      -0.463082    1.961489   -0.975302
H      -0.442971    2.049898    0.792981
H      -1.017260   -0.280976   -0.041591
H       0.508105   -0.338285   -0.904019
H       2.624344   -0.654838    0.245152
H       3.778720   -1.513615    2.293916
H       2.427711   -1.805545    4.374685
H      -1.685293    0.620456    2.343611
H      -2.033062   -1.058752    1.942652
H      -1.719386   -0.605268    3.629443
