16

O       0.037462    1.370200   -0.001857
C       0.014647   -0.034314   -0.032263
C       0.543239   -0.708704    1.282302
C      -0.800325   -1.338167    1.719724
C      -1.281948   -2.063748    0.435660
C      -1.425837   -0.587398    0.026636
O      -1.761649   -0.267068    1.425727
C      -0.909245   -1.916578    3.043404
N      -0.969670   -2.403452    4.089336
H      -0.537743    1.632447    0.729360
H       0.563298   -0.340795   -0.925501
H       1.323794   -1.455346    1.122987
H       0.900102    0.039575    1.991449
H      -0.572843   -2.703855   -0.092742
H      -2.245833   -2.550716    0.578395
H      -2.151915   -0.220282   -0.695880
