20

C      -1.534149   -0.261299    0.514505
O      -0.511633   -1.179636    0.191265
C       0.473255   -0.692203   -0.703757
C       1.600667   -1.744932   -0.656576
C       2.842332   -1.300416   -1.275686
C       3.871803   -0.918374   -1.765466
C      -0.087024   -0.492434   -2.100875
C      -0.519978    0.854685   -2.558248
N       0.682370    0.229530   -3.122542
H      -1.121071    0.678304    0.913461
H      -2.170583   -0.021163   -0.346916
H      -2.147630   -0.731394    1.286849
H       0.874104    0.269794   -0.337811
H       1.775225   -1.986963    0.397767
H       1.244599   -2.665925   -1.133892
H       4.782456   -0.598592   -2.208145
H      -0.612457   -1.367728   -2.480955
H      -1.352751    0.955030   -3.248762
H      -0.404118    1.685757   -1.865744
H       1.525294    0.620994   -2.708976
