22

C      -0.074072    1.457538   -0.232733
C      -0.036010    0.011258   -0.066807
C       0.004179   -1.184086    0.072848
C       0.020002   -2.633729    0.236612
C      -1.374392   -3.274317    0.091491
C      -1.332943   -4.792746    0.259126
N      -2.671054   -5.363875    0.159772
C      -3.117008   -5.734560   -1.179423
C      -2.747688   -6.778334   -0.183840
H       0.525045    1.777714   -1.092622
H      -1.097830    1.813594   -0.393864
H       0.317792    1.971922    0.651961
H       0.703930   -3.079122   -0.499170
H       0.435153   -2.888112    1.221644
H      -2.055722   -2.848553    0.834720
H      -1.786302   -3.023059   -0.892439
H      -0.641316   -5.232521   -0.485634
H      -0.934674   -5.047634    1.249759
H      -4.158885   -5.529835   -1.408209
H      -2.428561   -5.576315   -2.008924
H      -1.814634   -7.314729   -0.351962
H      -3.514631   -7.350396    0.330611
