16

C       0.077534    1.535783    0.065711
C       0.020927    0.039045    0.032642
C      -0.025575   -0.796908   -1.062518
N      -0.068639   -2.067758   -0.585384
N      -0.045803   -2.124901    0.756973
C       0.002174   -0.849728    1.143075
C       0.070038   -0.499296    2.597881
O       1.260096    0.214255    2.935872
H       0.804275    1.874031    0.809300
H       0.358116    1.947315   -0.907916
H      -0.890548    1.973311    0.339571
H      -0.029741   -0.587962   -2.121357
H      -0.103356   -2.924266   -1.110862
H      -0.749401    0.172086    2.876568
H      -0.035344   -1.419931    3.187597
H       2.003049   -0.333065    2.660145
