16

C       0.130373    1.565659   -0.101490
C      -0.043019    0.043609    0.044823
C       0.589817   -0.498618    1.286208
C      -0.019748   -1.076844    2.333783
C       0.744577   -1.549986    3.490341
O       0.249280   -2.078138    4.459552
N       2.155168   -1.345788    3.408408
C       2.628712   -0.789172    2.373096
O       1.951047   -0.341003    1.284344
H       1.188567    1.838121   -0.122073
H      -0.329092    1.910480   -1.031452
H      -0.342765    2.094811    0.730817
H      -1.103551   -0.221803    0.060176
H       0.405657   -0.459626   -0.820821
H      -1.094742   -1.204937    2.340954
H       3.692666   -0.605193    2.246724
