13

C      -0.197712    1.538481    0.047221
C       0.001638    0.055088    0.012882
N       0.029774   -0.515596   -1.132411
O       0.218360   -1.915926   -1.158813
C       0.369537   -2.677780   -0.045406
O       0.524979   -3.851095   -0.117642
O       0.334453   -2.038810    1.159058
C       0.154985   -0.677083    1.277456
N       0.125264   -0.102232    2.398823
H       0.646468    2.018363    0.550357
H      -0.293333    1.921339   -0.969174
H      -1.093335    1.782807    0.625341
H       0.248364   -0.768924    3.163035
