11

O       0.215016   -0.169413   -0.297784
C       0.103931    1.005581   -0.244836
O      -1.171698    1.585790   -0.450856
C      -1.406226    2.901689   -0.642434
N      -0.669758    3.787472   -1.180066
C       0.632151    3.544496   -1.579059
N       1.520633    2.840365   -0.985312
C       1.192598    2.044394    0.099535
O       1.715309    2.048918    1.179812
H      -2.411412    3.154307   -0.315012
H       0.926166    4.095300   -2.470957
