21

C      -0.165684    1.410385    0.015692
N      -0.153814   -0.033698    0.017023
C       0.162058   -0.736644   -1.130656
O       0.243888   -0.291515   -2.256801
N       0.383351   -2.057472   -0.747388
C      -0.121460   -2.276259    0.598449
C      -0.011624   -0.858705    1.224524
C       1.369014   -0.661639    1.879783
C      -1.133703   -0.594025    2.231654
H       0.721654    1.840600    0.499854
H      -0.178846    1.727932   -1.028614
H      -1.056881    1.800985    0.518630
H       0.234282   -2.749238   -1.465382
H      -1.167627   -2.616455    0.602816
H       0.481273   -3.005514    1.147672
H       2.167766   -0.915683    1.177239
H       1.509070    0.374191    2.202528
H       1.468330   -1.300464    2.763287
H      -1.089940   -1.322659    3.047761
H      -1.043309    0.402235    2.675636
H      -2.113173   -0.670242    1.751081
