16

O      -0.110481    0.137971   -0.528937
C       0.009498    1.238474   -0.108718
O      -0.998354    2.044695    0.447389
C      -0.045649    3.116743    0.690974
C       0.655712    3.150825    2.072028
C       1.887347    2.413174    1.417473
C       1.080074    2.336626    0.083057
N       1.198298    3.287075   -1.044758
C       0.172604    4.186438   -0.408788
H       0.859542    4.145092    2.474387
H       0.125568    2.566129    2.825123
H       2.779825    3.036637    1.329334
H       2.173606    1.456706    1.857542
H       2.116690    3.687731   -1.192701
H      -0.683447    4.389725   -1.058019
H       0.558742    5.134156   -0.015886
