11

N      -0.264848    1.307015    0.012381
C      -0.062837    0.069829    0.002993
O      -1.179101   -0.750632    0.009421
C      -0.980306   -2.093399   -0.000236
O       0.081421   -2.654524   -0.013947
C      -2.252670   -2.781417    0.008415
C      -3.271332   -3.429424    0.014823
C      -4.429571   -4.151970    0.022177
N      -5.414736   -4.766426    0.028432
H       0.622514    1.808134    0.006324
H       0.873441   -0.486421   -0.009812
