16

N      -0.052290    1.272690    0.324361
C      -0.106465   -0.075250    0.128461
N       1.058275   -0.726863   -0.059802
H       1.893357   -0.217232   -0.291180
H       1.004393   -1.726072   -0.223885
C      -1.344267   -0.735217    0.113590
N      -2.391579    0.030181    0.547060
O      -3.519714   -0.491317    0.538433
C      -1.557946   -2.150494   -0.274842
C      -1.154484   -2.736734   -1.563455
O      -0.406574   -3.032665   -0.373399
H       0.747931    1.629587    0.825352
H      -0.953394    1.645807    0.607021
H      -2.419535   -2.590497    0.220714
H      -1.708492   -3.578458   -1.974308
H      -0.636972   -2.116637   -2.293627
