23

C       0.026140    1.495300    0.025169
C      -0.006155    0.000277   -0.020560
C      -0.029661   -0.776613   -1.107946
C       0.033865   -2.242836   -0.770950
O       1.306346   -2.802032   -1.111705
C      -0.320298   -2.279041    0.760326
C      -1.830340   -2.541583    0.898351
C       0.467874   -3.345570    1.524764
C      -0.004707   -0.833134    1.243089
H       0.906317    1.854237    0.573981
H       0.046628    1.932528   -0.976673
H      -0.849568    1.891872    0.554415
H      -0.011121   -0.419097   -2.132503
H      -0.679430   -2.851090   -1.338779
H       1.974850   -2.148460   -0.878885
H      -2.094424   -3.527643    0.500853
H      -2.139759   -2.510328    1.948618
H      -2.413065   -1.791964    0.352239
H       1.546205   -3.198510    1.423804
H       0.216745   -3.317583    2.591142
H       0.240439   -4.349218    1.151244
H       0.970490   -0.766275    1.746904
H      -0.742450   -0.475925    1.973116
