12

O       0.088894   -0.081059    0.002540
C      -0.037952    1.122289    0.007299
C       1.151156    2.010092    0.001368
N       2.052395    2.734623   -0.002962
C      -1.308168    1.830082    0.018806
C      -2.609562    1.341477    0.026805
C      -3.415023    2.486232    0.036163
N      -2.681818    3.609192    0.034442
N      -1.420066    3.192689    0.023978
H      -2.898789    0.303959    0.025669
H      -4.492086    2.554982    0.044172
H      -0.670610    3.869046    0.020680
