20

C      -0.117858    0.869493   -0.906815
C       0.059666   -0.147226    0.232567
C       0.650929    0.514868    1.487286
C      -1.300643   -0.753079    0.579367
O      -2.226933   -0.077187    0.990852
N      -1.411325   -2.107494    0.393527
C      -2.627062   -2.828523    0.700644
C      -3.304667   -3.377881   -0.545164
O      -3.890049   -4.426794   -0.589525
H       0.836121    1.351238   -1.141021
H      -0.490292    0.391094   -1.818256
H      -0.835525    1.638890   -0.610062
H       0.737895   -0.942232   -0.104057
H       0.830749   -0.216789    2.281349
H       1.602047    1.001251    1.250873
H      -0.042365    1.267686    1.871369
H      -0.605801   -2.622780    0.079059
H      -2.460321   -3.645365    1.410096
H      -3.303803   -2.096572    1.160452
H      -3.215788   -2.711061   -1.433691
