21

C      -0.029890    1.674928    0.369376
C      -0.025739    0.201329   -0.062485
C       0.796948   -0.664760    0.901832
C      -1.451898   -0.322414   -0.159308
C      -2.397518   -0.118829   -1.291029
C      -1.675523   -0.137486   -2.647475
C      -1.208842   -1.577044   -2.296915
O      -0.682033   -2.439777   -2.941320
C      -1.880353   -1.553742   -0.956247
H       0.989127    2.070576    0.428132
H      -0.595310    2.295078   -0.333661
H      -0.488272    1.791569    1.358843
H       0.446176    0.138449   -1.049853
H       1.831001   -0.310818    0.961942
H       0.375523   -0.632260    1.913826
H       0.814016   -1.709924    0.578413
H      -1.956932   -0.311817    0.807566
H      -3.409563    0.236830   -1.147153
H      -2.360394   -0.180449   -3.499700
H      -0.918515    0.627049   -2.840127
H      -2.372868   -2.391603   -0.477700
