23

C       0.217745    1.552630    0.196686
C       0.026376    0.057094    0.024073
C       0.902534   -0.670988   -0.966706
C       1.124185   -0.855430    0.514975
C      -1.395466   -0.452487    0.200669
O      -1.763722   -0.186158    1.554533
C      -2.400941    0.159004   -0.753570
C      -2.662130   -0.457737   -2.101172
C      -3.704643   -0.563974   -1.016684
H       1.280271    1.812616    0.170595
H      -0.276972    2.121346   -0.598765
H      -0.191001    1.881486    1.156501
H       0.479785   -1.499023   -1.525885
H       1.624097   -0.085532   -1.526690
H       1.999706   -0.399782    0.964753
H       0.839448   -1.802332    0.961177
H      -1.387068   -1.543335    0.024246
H      -2.718472   -0.296898    1.614568
H      -2.466659    1.241436   -0.696776
H      -2.853013    0.202505   -2.939584
H      -2.116216   -1.357752   -2.362706
H      -3.850484   -1.537233   -0.556930
H      -4.611778    0.022547   -1.110414
