18

N       0.012655   -1.037329   -0.516209
C       0.004615    0.050326   -0.125455
C       0.016055    1.429696    0.363009
C       1.378033    2.088192    0.164925
C       1.817582    2.726949   -1.130526
C       0.744315    3.131962   -2.125444
O      -0.244252    3.842040   -1.377194
C       0.382532    4.455784   -0.252245
C       1.576227    3.584713    0.094598
H      -0.763983    1.992684   -0.156769
H      -0.245263    1.418799    1.427815
H       2.175124    1.564091    0.684647
H       2.813843    2.526527   -1.506014
H       1.184428    3.770639   -2.906781
H       0.237509    2.293335   -2.614320
H       0.727349    5.473474   -0.493577
H      -0.374487    4.532251    0.536077
H       2.390665    4.032211    0.652250
