19

O      -0.141369    0.010587    0.222186
C      -0.074049    1.199602    0.061564
C      -1.269471    2.163231   -0.129374
C      -0.673413    3.506934    0.222659
C       0.657144    3.447300    0.299356
C       1.747715    4.336485    0.835466
C       2.902111    3.336332    1.176023
C       2.280633    1.915062    1.129503
C       1.194374    2.060262    0.048400
H      -1.619672    2.092574   -1.169810
H      -2.115177    1.863980    0.500104
H      -1.282815    4.374754    0.449688
H       2.078889    5.081900    0.103674
H       1.408761    4.893696    1.714921
H       3.688849    3.413772    0.418173
H       3.368595    3.553258    2.140299
H       3.016993    1.138069    0.913652
H       1.810992    1.668326    2.088174
H       1.651313    1.967407   -0.949954
