19

O       0.043652    1.432451    0.059481
C       0.011694    0.024049    0.079573
C      -1.425778   -0.541115   -0.010413
C      -2.061064   -0.068963   -1.240380
C      -2.536524    0.331076   -2.270895
C      -1.436116   -2.072593    0.069630
C      -1.149182   -2.709245    1.449836
O      -2.432904   -3.360551    1.468676
C      -2.809171   -2.766304    0.208743
H      -0.393967    1.714780   -0.752875
H       0.616216   -0.412248   -0.731612
H       0.458138   -0.281197    1.031377
H      -1.987566   -0.140381    0.844946
H      -2.981583    0.675259   -3.171978
H      -0.825020   -2.485865   -0.736660
H      -0.321682   -3.427495    1.489124
H      -1.037731   -1.995842    2.278684
H      -3.663511   -2.084664    0.311388
H      -3.047569   -3.522551   -0.547838
