18

C       0.003068    1.480401   -0.008076
C      -0.004380   -0.037504    0.001628
O       0.680503   -0.474957   -1.173209
C       0.778316   -1.808043   -1.351109
C       1.403185   -2.424542   -2.399903
N       1.248096   -3.789807   -2.131256
C       0.553157   -3.897950   -0.973399
N       0.147143   -5.128704   -0.457637
N       0.258308   -2.719331   -0.462285
H       1.027649    1.863593   -0.005762
H      -0.503951    1.865189   -0.897696
H      -0.512422    1.863791    0.877717
H       0.496478   -0.435533    0.892531
H      -1.027141   -0.433271    0.003724
H       1.942475   -2.056090   -3.253127
H       1.479531   -4.544748   -2.753100
H       0.910053   -5.784071   -0.330862
H      -0.322081   -4.982188    0.427421
