16

C      -0.073789    1.499173    0.053118
C       0.035023    0.012416   -0.023647
C      -0.051719   -0.797674   -1.117609
N       0.106983   -2.097029   -0.650861
C       0.296258   -1.990677    0.712220
N       0.258687   -0.752965    1.116578
C       0.089311   -3.244865   -1.482557
N       0.031281   -4.429110   -0.795694
O       0.153202   -3.153511   -2.685052
H       0.837451    1.936143    0.475077
H      -0.236859    1.933053   -0.936659
H      -0.904013    1.798888    0.701623
H      -0.208373   -0.612377   -2.165624
H       0.496764   -2.849229    1.335148
H      -0.400063   -4.463108    0.113255
H      -0.101615   -5.238344   -1.381459
