21

C      -0.215453    1.544465    0.038894
C       0.029571    0.039159   -0.010347
C       0.895976   -0.469543   -1.206681
C       2.014889   -1.253943   -0.473443
C       2.711364   -2.352480   -1.237449
C       2.920096   -0.227225    0.244437
O       2.068422    0.250632    1.295726
C       0.873908   -0.520757    1.156675
O       1.305149   -1.774379    0.676612
H       0.730854    2.090196    0.083206
H      -0.770331    1.880905   -0.842652
H      -0.799945    1.821093    0.923369
H      -0.930621   -0.487739   -0.004878
H       0.331102   -1.134735   -1.864464
H       1.296149    0.347566   -1.814053
H       3.260167   -1.936478   -2.088283
H       3.420510   -2.882128   -0.594797
H       1.984212   -3.074068   -1.620393
H       3.810224   -0.701075    0.676181
H       3.229090    0.600795   -0.403211
H       0.386624   -0.611563    2.127987
