19

C      -0.245202    1.602034    0.135349
C      -0.050646    0.098199    0.005111
O      -1.259937   -0.598588    0.230979
C       0.706143   -0.442417   -1.264583
C       1.067354    0.465419   -2.426902
O       1.927487   -0.193188   -3.348842
N       1.826695   -0.767257   -0.360753
C       1.121348   -0.500805    0.795378
N       1.228879   -0.689146    2.042630
H       0.677245    2.153089   -0.068880
H      -1.026635    1.945608   -0.548860
H      -0.556558    1.835144    1.157901
H      -1.280425   -0.805738    1.173946
H       0.183248   -1.335087   -1.633178
H       0.149830    0.829236   -2.914452
H       1.627604    1.333576   -2.069461
H       1.417430   -0.882542   -3.786671
H       2.560280   -1.444996   -0.508228
H       2.075275   -1.202747    2.292275
