16

C      -0.206154    1.476988    0.035504
N       0.126756    0.064190    0.022893
C       1.192830   -0.425372   -0.891502
C       1.884800   -1.120904    0.293231
C       2.218438   -0.084658    1.352431
C       0.790549   -0.512780    1.182722
C       2.422434   -2.438138    0.284762
N       2.866119   -3.507385    0.262437
H       0.654096    2.144189    0.218768
H      -0.650516    1.751870   -0.926085
H      -0.952486    1.662948    0.814356
H       0.803545   -1.111844   -1.648186
H       1.793767    0.354058   -1.377729
H       2.720450   -0.479050    2.229469
H       2.556550    0.897573    1.034547
H       0.221133   -0.982371    1.977580
