23

C       0.244551    1.661747   -0.095775
C       0.041333    0.146275    0.056307
C       0.655723   -0.639874   -1.123995
C       2.118666   -0.856498   -0.702779
C       2.034302   -1.184778    0.802483
C       3.318638   -0.898460    1.580389
C       0.770987   -0.438675    1.278075
C       0.582748    0.091266    2.635495
O      -0.034569   -1.135506    2.243338
H       1.304546    1.923729   -0.182471
H      -0.261201    2.026582   -0.995864
H      -0.160944    2.210260    0.759537
H      -1.028546   -0.056497    0.162840
H       0.154584   -1.609427   -1.226597
H       0.554042   -0.116154   -2.079115
H       2.619123   -1.645099   -1.271981
H       2.699046    0.062432   -0.854245
H       1.796959   -2.251471    0.907415
H       3.565013    0.169089    1.561897
H       3.236850   -1.208957    2.626745
H       4.162614   -1.443074    1.143781
H       1.377231    0.002732    3.374902
H      -0.099551    0.924738    2.803169
