17

O      -0.040123    1.449238   -0.078460
C       0.023266    0.048664    0.003218
C       0.005644   -0.631067    1.398528
C      -1.489705   -0.187532    1.570899
C      -2.237949   -1.261609    2.350049
C      -1.587813   -2.500440    1.710600
O      -1.789910   -3.662887    1.945824
C      -0.625447   -1.898018    0.715098
C      -1.342269   -0.651285    0.077891
H       0.855674    1.797835   -0.042061
H       0.737016   -0.368002   -0.719472
H       0.784272   -0.642183    2.164003
H      -1.697469    0.861029    1.765051
H      -2.059424   -1.236825    3.430192
H      -3.321216   -1.257158    2.189503
H      -0.021620   -2.569763    0.107110
H      -2.121938   -0.681448   -0.684794
