19

C      -0.779625    1.265242    0.326900
C       0.057391    0.019578    0.125662
C       0.705019   -0.219159   -1.256135
C       2.036061   -0.206777   -0.479775
C       2.966894   -1.455714   -0.468732
C       4.039059   -0.592383   -1.150548
O       5.062486   -0.833830   -1.721076
C       3.230988    0.690559   -0.903383
O       1.367631    0.124877    0.745361
H      -0.267741    2.146321   -0.072561
H      -1.745713    1.161789   -0.179359
H      -0.968501    1.430935    1.392141
H      -0.471953   -0.861077    0.513782
H       0.449974   -1.153386   -1.759008
H       0.583031    0.612795   -1.953788
H       3.253428   -1.721955    0.554838
H       2.644401   -2.357453   -0.995963
H       3.100713    1.370512   -1.749507
H       3.619460    1.254728   -0.047893
