14

N      -0.050152    1.229090   -0.362434
C      -0.016632    0.018152   -0.024630
O       1.095349   -0.700518    0.289791
C       0.754241   -2.057573    0.627207
C      -0.615867   -2.297668   -0.016799
C      -1.249114   -0.890655    0.067915
C      -1.956551   -0.682209    1.332555
N      -2.509562   -0.551074    2.338642
H       0.885269    1.638800   -0.354157
H       1.541679   -2.706276    0.239706
H       0.715345   -2.153214    1.718298
H      -0.500765   -2.574046   -1.068143
H      -1.197362   -3.068848    0.488683
H      -1.930330   -0.667864   -0.755017
