18

C       0.132774    1.443214   -0.076816
C       1.389310    0.669137   -0.021798
N       0.028650   -0.019973    0.067517
C       0.266701   -0.589046   -1.309755
C       1.671765    0.022255   -1.353322
C       2.430823    0.493666   -2.573164
C       3.744768    1.124192   -2.125132
O       4.069632   -0.033946   -1.304202
C       2.897074   -0.708612   -1.770146
H      -0.172900    1.975413    0.818989
H      -0.176683    1.907592   -1.011779
H       2.074826    0.695652    0.817885
H       0.251503   -1.681424   -1.274578
H      -0.456595   -0.241633   -2.056288
H       1.984991    0.560760   -3.556960
H       4.478882    1.236213   -2.930459
H       3.690632    2.048865   -1.538660
H       2.968233   -1.770348   -1.982880
