9

O      -0.049969   -0.044334   -0.000188
C      -0.020564    1.145742    0.008709
N       1.173280    1.912508    0.002212
C       1.316724    3.265621    0.011376
N       2.584639    3.564662   -0.000528
N       3.244075    2.353392   -0.016242
N       2.428666    1.369984   -0.014638
H      -0.904401    1.806693    0.022842
H       0.492354    3.960447    0.025323
