20

C      -0.323998    1.294289   -0.248033
C       1.101574    1.220413    0.231123
C       0.299763   -0.049761    0.043561
C      -0.161286   -0.817146    1.215067
C      -1.460572   -1.401765    1.636119
C      -0.809143   -2.704099    2.091680
C       0.501032   -1.879951    2.198946
C       0.157014   -0.869273    3.301337
N      -0.862503   -0.239053    2.399176
H      -1.065564    1.648295    0.458528
H      -0.511673    1.553033   -1.283910
H       1.899022    1.427079   -0.474066
H       1.301421    1.541269    1.247288
H       0.563600   -0.658283   -0.817664
H      -2.449634   -1.234148    1.230127
H      -1.172903   -3.195114    3.001219
H      -0.775990   -3.424353    1.270090
H       1.475988   -2.356187    2.113807
H      -0.231876   -1.252229    4.252867
H       0.946507   -0.138332    3.492888
