20

C       0.186459    1.687042   -0.140893
C       0.074585    0.171087   -0.045529
C       0.754806   -0.749437   -1.062689
N       2.163639   -1.075218   -0.619061
C       2.330178   -0.361821    0.692773
C       0.861167   -0.644793    1.029058
C       0.983639   -1.801228   -0.045795
C       0.881853   -3.287207   -0.031262
O       1.871722   -3.884488    0.794508
H       1.220735    2.024056   -0.248177
H      -0.368896    2.057376   -1.009584
H      -0.235749    2.166786    0.749225
H      -0.980657   -0.119964    0.010903
H       0.564343   -0.853861   -2.123833
H       3.022826   -0.941957    1.307246
H       2.676667    0.675098    0.629436
H       0.493522   -0.719429    2.050782
H      -0.084312   -3.606764    0.373854
H       0.945326   -3.653555   -1.068002
H       2.723991   -3.610934    0.436532
