19

C       0.064289    1.576122   -0.003492
C       0.058602    0.049745    0.029163
N       0.740562   -0.482420   -1.148879
C       1.419659   -1.673281   -1.246329
O       1.840795   -2.111032   -2.301673
N       1.663795   -2.302971   -0.031183
C       0.852782   -2.035430    1.149696
C       0.737077   -0.516213    1.292706
O       2.002051    0.064719    1.543146
H       1.086901    1.951208    0.069261
H      -0.388012    1.946607   -0.929505
H      -0.514711    1.977158    0.834034
H      -0.988060   -0.297009    0.048686
H       0.559737   -0.055544   -2.043920
H       2.033224   -3.232851   -0.156601
H      -0.149030   -2.487787    1.089591
H       1.359516   -2.448764    2.026068
H       0.109424   -0.273213    2.155771
H       2.626285   -0.352441    0.935775
