25

C      -0.933263   -0.165091    0.480529
C       0.591362   -0.331989    0.553635
C       1.248694   -0.700225   -0.771269
C       1.112214    0.359393   -1.845257
O       1.719259    1.560468   -1.378609
C       2.552843   -1.480543   -0.795783
C       3.302003   -1.919982    0.444803
C       1.271170   -2.136646   -1.272719
C       0.611835   -3.289061   -0.542455
H      -1.220023    0.655830   -0.183700
H      -1.420482   -1.075330    0.115786
H      -1.343414    0.060495    1.470118
H       1.039258    0.605073    0.902110
H       0.826070   -1.082651    1.312554
H       1.599621    0.006509   -2.767990
H       0.050369    0.527566   -2.085219
H       1.524081    2.259178   -2.009679
H       3.226752   -1.177430   -1.594529
H       2.646448   -2.292119    1.234846
H       4.004309   -2.725620    0.202186
H       3.882993   -1.090688    0.863100
H       1.192303   -2.238210   -2.353994
H       0.643349   -3.180882    0.543987
H      -0.441003   -3.384545   -0.830270
H       1.105665   -4.235702   -0.790126
