19

C      -0.088119    1.443063    0.136753
N       0.004606    0.006526   -0.005506
C       0.050984   -0.716661   -1.152407
C       0.042418   -2.054092   -0.800159
C       0.122069   -3.250013   -1.700346
C       1.536530   -3.827560   -1.791207
O       1.489362   -4.952834   -2.654171
C      -0.016074   -2.019469    0.612432
N      -0.042777   -0.777198    1.088806
H       0.324064    1.921600   -0.753936
H      -1.127238    1.763675    0.267699
H       0.487267    1.748232    1.012141
H       0.082699   -0.236824   -2.118740
H      -0.545801   -4.043368   -1.346054
H      -0.208530   -2.992819   -2.712322
H       2.223336   -3.054468   -2.171087
H       1.884784   -4.105074   -0.783797
H       2.372330   -5.329638   -2.706740
H      -0.038817   -2.854817    1.298462
