19

C       0.014455    1.597008    0.109807
C       0.005681    0.068227    0.020558
C      -1.432441   -0.504437    0.054657
C      -2.154781   -0.186125    1.279306
C      -2.733521    0.079455    2.299241
C       0.717115   -0.449673   -1.257056
O       0.057299   -0.023581   -2.448497
C       2.139054   -0.097008   -1.271755
C       3.297982    0.222791   -1.291745
H       1.036912    1.984488    0.110476
H      -0.524298    2.041385   -0.734986
H      -0.481841    1.927401    1.025061
H       0.556751   -0.340088    0.876262
H      -1.980691   -0.126715   -0.816310
H      -1.389924   -1.595414   -0.062943
H      -3.256030    0.307795    3.194784
H       0.631387   -1.543885   -1.270388
H       0.342729    0.877293   -2.634134
H       4.326006    0.489568   -1.312958
