17

C      -0.144585    1.534794    0.052094
C       0.142356    0.035412   -0.086908
C       0.810404   -0.544307    1.153568
C      -0.061777   -0.849968    2.416837
N      -0.634982   -2.028153    1.629068
C       0.863475   -2.095616    1.328091
C       1.047680   -1.839457    2.841222
O       1.581233   -2.287730    3.807763
H       0.771686    2.102468    0.249775
H      -0.591572    1.934207   -0.863182
H      -0.840607    1.731832    0.874424
H      -0.781376   -0.510029   -0.293410
H       0.809013   -0.129848   -0.942963
H       1.753009   -0.034878    1.376980
H      -0.695140   -0.182580    2.998264
H      -0.917841   -2.786004    2.256796
H       1.284739   -2.847228    0.662704
