18

C      -0.217433    1.522479    0.013105
C      -0.027075    0.018817    0.002257
O      -1.339129   -0.588283    0.011155
C      -1.366378   -1.928929    0.004349
O      -0.386020   -2.631968   -0.008427
C      -2.795880   -2.437662    0.014935
C      -2.833118   -3.973674    0.007046
C      -4.199866   -4.488581    0.017227
N      -5.286045   -4.882499    0.025336
H       0.758001    2.017627    0.006585
H      -0.777202    1.852538   -0.866352
H      -0.759968    1.841929    0.907157
H       0.511012   -0.322680   -0.887328
H       0.527916   -0.333316    0.877178
H      -3.306691   -2.036078    0.895867
H      -3.322984   -2.026684   -0.851952
H      -2.310083   -4.356985   -0.874325
H      -2.293560   -4.366355    0.874215
