15

O      -0.027585    0.010786   -0.283102
C       0.000521    1.149936    0.120524
C       1.218345    1.992466    0.109731
C       1.238498    3.485803   -0.185182
C       0.003780    4.211077    0.370071
C       0.373830    3.693479    1.800316
C       1.597146    2.984590    1.200503
H      -0.917593    1.623536    0.528547
H       2.073434    1.464179   -0.302519
H       1.885888    3.856244   -0.970842
H       0.100963    5.296073    0.295993
H      -0.968657    3.926685   -0.040292
H       0.661626    4.511678    2.463541
H      -0.357036    3.071160    2.323267
H       2.569538    2.900732    1.670629
