18

O      -0.142627    1.339424   -0.485340
C      -0.013831    0.066124    0.127863
C      -1.371584   -0.589080    0.050580
C      -1.809278   -1.363430   -1.154821
C      -1.554948   -2.102268    0.151434
C      -0.381271   -3.077364    0.258210
O      -0.693002   -4.350200   -0.266049
C      -2.707367   -2.563995    0.886320
N      -3.602720   -2.985365    1.487164
H       0.682025    1.818659   -0.360057
H       0.744255   -0.544494   -0.384717
H       0.294091    0.159454    1.180985
H      -2.144058   -0.007446    0.544338
H      -2.831641   -1.263590   -1.497913
H      -1.080553   -1.541112   -1.938682
H       0.457659   -2.706044   -0.334560
H      -0.051223   -3.140412    1.305822
H      -1.388511   -4.737157    0.278061
