19

C      -0.687350    1.274422    0.112972
C      -0.009065   -0.084965   -0.017635
C       0.894481   -0.341038   -1.289967
O       1.118929    0.768634   -2.135130
C       2.091246   -0.581504   -0.365381
C       3.232720   -1.568757   -0.486249
C       3.514875   -0.107592   -0.576019
C       1.253228   -0.312298    0.845204
O       1.474897   -0.275130    2.024854
H       0.009952    2.081908   -0.123126
H      -1.544607    1.357991   -0.563919
H      -1.049714    1.416722    1.134930
H      -0.730818   -0.895281    0.140236
H       0.587480   -1.220625   -1.870728
H       0.337644    0.894605   -2.683196
H       3.508802   -2.095290    0.421384
H       3.270061   -2.161765   -1.394222
H       3.723250    0.326558   -1.546955
H       3.987439    0.382976    0.268022
