18

C       0.096037    1.610126    0.074889
C      -0.014928    0.073291    0.030144
C       0.741858   -0.518881    1.138575
N       1.358108   -0.988425    1.995565
C      -1.476816   -0.461413    0.054404
N      -2.196770    0.076013    1.195480
C      -2.156173   -0.214974   -1.326727
C      -3.513270   -0.751389   -1.346769
N      -4.584436   -1.184438   -1.322273
H       1.143980    1.914489    0.031293
H      -0.420219    2.065204   -0.774956
H      -0.329331    1.999738    1.002327
H       0.455144   -0.285245   -0.894756
H      -1.419382   -1.545330    0.194273
H      -2.485353    1.036426    1.037641
H      -3.038372   -0.461167    1.373801
H      -2.204457    0.858298   -1.543941
H      -1.578509   -0.681325   -2.133480
