21

C       0.046831    1.501328   -0.034492
C      -0.020720   -0.012704    0.004859
C      -0.855521   -0.652598    1.079195
C       0.666751   -0.732166    1.151114
C       1.333961   -2.026588    0.873928
C       1.128743   -2.712728   -0.251502
C       0.200483   -2.205383   -1.324351
C       0.098372   -0.668914   -1.359531
O      -1.026179   -0.249729   -2.132735
H       0.989084    1.842820   -0.479823
H      -0.773704    1.905807   -0.633936
H      -0.020470    1.925535    0.972112
H      -1.364189    0.003670    1.777683
H      -1.386337   -1.572989    0.865103
H       1.142581   -0.103955    1.898014
H       1.997408   -2.417987    1.640426
H       1.611684   -3.672775   -0.407493
H       0.524837   -2.560432   -2.310999
H      -0.812732   -2.606844   -1.183697
H       1.025150   -0.279114   -1.814054
H      -0.900885   -0.568337   -3.032347
