21

C       0.093349    1.518446    0.165046
C      -0.065598    0.008131   -0.048428
C       0.665419   -0.510274   -1.269868
C       2.232503   -0.420059   -1.427942
C       1.950596   -1.489601   -2.520137
O       3.011098   -2.247792   -3.007065
C       0.846386   -2.047215   -1.550221
C       1.072182   -0.675722   -3.492945
C       0.233773   -0.038904   -2.674624
H       1.145502    1.788543    0.302859
H      -0.282303    2.086263   -0.692680
H      -0.456346    1.850967    1.050851
H       0.297165   -0.524812    0.839270
H      -1.131521   -0.241452   -0.138033
H       2.658691    0.530177   -1.756132
H       2.774875   -0.823841   -0.566793
H       2.666433   -2.871552   -3.655007
H       1.264930   -2.594253   -0.698864
H       0.000638   -2.581241   -1.991265
H       1.164974   -0.659458   -4.570521
H      -0.572475    0.647464   -2.896084
