19

C      -0.069256    1.573566    0.054650
C      -0.018928    0.044245    0.009027
C       0.716431   -0.488986   -1.226280
C       0.759546   -2.018218   -1.265526
C       1.497684   -2.569720   -2.520182
C       2.906031   -2.147860   -2.553316
N       4.001671   -1.784058   -2.565397
C       1.396863   -4.033887   -2.593098
N       1.276601   -5.181246   -2.634775
H       0.938552    2.002139    0.071143
H      -0.587800    1.979735   -0.820726
H      -0.596060    1.925220    0.946545
H       0.474443   -0.335001    0.913129
H      -1.039680   -0.359373    0.026685
H       0.224194   -0.114414   -2.134563
H       1.738928   -0.091997   -1.242979
H       1.252649   -2.415256   -0.372557
H      -0.254444   -2.430870   -1.282889
H       1.013588   -2.161525   -3.417610
