23

C      -0.959885    0.995920    0.068199
C       0.106688   -0.103357   -0.101077
C       1.041930    0.237049   -1.234854
C       2.352776    0.006064   -1.248183
C       3.101745   -0.639298   -0.116679
C       2.324964   -0.655919    1.186468
C       1.779642    0.629679    1.763452
C       0.830514   -0.412528    1.213565
C       0.016118   -1.216221    2.210204
H      -0.498126    1.946712    0.352967
H      -1.505186    1.153549   -0.868430
H      -1.691544    0.732380    0.837215
H      -0.428352   -1.022918   -0.391471
H       0.573521    0.692338   -2.105666
H       2.934051    0.274696   -2.127175
H       3.355312   -1.671586   -0.401673
H       4.068170   -0.134750    0.025538
H       2.692278   -1.377229    1.912045
H       1.820586    0.773882    2.838183
H       1.928595    1.536546    1.185553
H      -0.903140   -0.695817    2.501918
H      -0.272054   -2.188452    1.792059
H       0.588150   -1.404660    3.124288
