22

C       0.161041    0.532996   -1.005438
C       0.035017   -0.176023    0.352648
C       0.458953    0.747083    1.504998
C      -1.421216   -0.604278    0.557839
O      -2.324852    0.213232    0.636846
N      -1.629666   -1.948685    0.642437
C      -2.947409   -2.538504    0.772108
C      -3.196343   -3.565651   -0.322212
O      -2.182221   -4.558095   -0.200352
H       1.182554    0.894894   -1.158312
H      -0.089246   -0.138260   -1.833456
H      -0.522060    1.385949   -1.042811
H       0.679869   -1.064262    0.351579
H       0.430112    0.225885    2.467213
H       1.476998    1.117047    1.348384
H      -0.220721    1.601327    1.562881
H      -0.859745   -2.586210    0.520747
H      -3.053268   -3.027298    1.749528
H      -3.672477   -1.724143    0.714360
H      -4.199967   -3.999668   -0.197193
H      -3.154370   -3.074160   -1.305412
H      -2.247048   -5.156306   -0.949963
