20

C       0.155080    1.637033    0.147080
C       0.192209    0.107329    0.140598
C       0.509172   -0.477417   -1.251416
C       0.544192   -1.968746   -1.299110
C      -0.281124   -2.905228   -1.882284
N      -1.458519   -2.693837   -2.618250
N       0.144338   -4.182891   -1.609818
C       1.220833   -4.040675   -0.866380
N       1.511570   -2.733368   -0.652765
H       1.115811    2.060048   -0.168051
H      -0.611736    2.016183   -0.537711
H      -0.068819    2.026572    1.144867
H       0.941047   -0.245510    0.861950
H      -0.768380   -0.296095    0.480399
H      -0.253570   -0.132106   -1.959047
H       1.460259   -0.052206   -1.606878
H      -1.354725   -1.987613   -3.336487
H      -1.745755   -3.564653   -3.048521
H       1.821628   -4.843034   -0.465402
H       2.292171   -2.373746   -0.130231
