25

C      -1.749874    1.532400    1.618160
C      -1.743311    0.003425    1.532645
C      -1.459224   -0.509652    0.114400
C      -1.424992   -2.043094   -0.019110
C      -2.828957   -2.650416   -0.012590
O      -2.708294   -4.067433    0.027201
C      -0.592972   -2.518442   -1.236612
C      -1.060767   -1.982252   -2.585734
O       0.769174   -2.105193   -1.100756
H      -1.939304    1.875921    2.640041
H      -0.788601    1.949381    1.297993
H      -2.525099    1.961853    0.973596
H      -0.984124   -0.397689    2.217220
H      -2.706224   -0.381448    1.891656
H      -2.205200   -0.091740   -0.575649
H      -0.486459   -0.125207   -0.212136
H      -0.913860   -2.451743    0.867004
H      -3.385921   -2.282942    0.862175
H      -3.382044   -2.323983   -0.907892
H      -3.591649   -4.446099    0.006439
H      -0.648325   -3.614728   -1.260383
H      -1.020125   -0.889771   -2.614305
H      -0.406464   -2.363280   -3.374181
H      -2.082925   -2.301460   -2.807154
H       1.119824   -2.511082   -0.301311
