13

N      -0.049229    1.351771    0.097861
C       0.020817   -0.001977    0.035352
N      -1.145607   -0.664508    0.028707
C      -1.067189   -1.994189    0.000263
N       0.022947   -2.758015   -0.027375
C       1.178810   -2.075297   -0.023798
C       1.246675   -0.698446    0.007388
C      -2.336195   -2.694958   -0.005025
N      -3.349235   -3.250833   -0.009785
H       0.762797    1.913284   -0.088055
H      -0.955481    1.772962   -0.024992
H       2.086498   -2.672697   -0.047523
H       2.196732   -0.177211    0.012617
