12

C      -0.008920    1.556007    0.006307
C      -0.020996    0.005510    0.043341
C       0.740480   -0.497912    1.198914
N       1.357483   -0.870382    2.100857
C      -1.382384   -0.527508    0.048154
C      -2.514883   -0.942156    0.028182
C      -3.797919   -1.411149    0.005952
N      -4.889072   -1.807391   -0.016251
H       1.022101    1.913711   -0.029460
H      -0.541710    1.902578   -0.881287
H      -0.495508    1.962123    0.894722
H       0.484195   -0.366792   -0.858831
