17

C      -0.119350    1.354973    0.349076
O      -0.251070   -0.071166    0.425085
C      -1.327237   -0.581130   -0.204110
O      -2.134258    0.084650   -0.801758
C      -1.380798   -2.088501   -0.096277
C      -0.834377   -2.830773    1.177211
C      -2.254888   -3.368615    1.398729
O      -3.114949   -2.230502    1.531806
C      -2.772659   -2.665058    0.214261
H       0.788288    1.599136    0.900980
H      -0.035299    1.679062   -0.691284
H      -0.986451    1.843849    0.799640
H      -0.957488   -2.510197   -1.013499
H      -0.104125   -3.602755    0.925968
H      -0.445699   -2.198986    1.976443
H      -2.574850   -4.290713    1.868621
H      -3.582446   -2.891573   -0.467553
