15

O      -0.021149    1.430943    0.030699
C       1.273037    0.808880   -0.000352
C       0.052256   -0.003251    0.007327
C       0.067756   -0.658995   -1.404767
O       1.478889   -0.839406   -1.608583
C       1.859525    0.532975   -1.416037
C       0.957652    1.255363   -2.434223
O       0.613543    0.442951   -3.556889
C      -0.258900    0.446060   -2.426566
H       1.908330    0.981699    0.861859
H      -0.345083   -0.517393    0.876033
H      -0.447703   -1.613628   -1.492901
H       2.938377    0.638952   -1.514202
H       0.975858    2.330200   -2.570815
H      -1.258440    0.843848   -2.556745
