14

N      -0.088955    1.308854   -0.034730
C      -0.001967   -0.043636    0.010595
O       1.042985   -0.677376    0.056476
C      -1.307338   -0.732496   -0.002176
N      -2.524562   -0.199365   -0.051076
C      -3.372672   -1.259593   -0.039996
O      -4.712802   -1.110563   -0.079792
C      -2.683408   -2.455187    0.015604
N      -1.361301   -2.081753    0.038681
H       0.755022    1.854820   -0.032175
H      -0.990219    1.754781   -0.073539
H      -4.883557   -0.161713   -0.114454
H      -3.009749   -3.479346    0.039195
H      -0.537578   -2.661666    0.078557
