21

C       0.083356    1.534974   -0.010507
C      -0.092024    0.014286   -0.084920
C       0.684528   -0.608728   -1.235950
C       2.239296   -0.606037   -1.210184
C       2.221859   -2.058917   -1.751136
C       0.714006   -2.179511   -1.358511
O       0.451657   -2.903232   -0.172625
C      -0.197844   -2.767791   -2.411802
O      -0.252964   -2.361599   -3.545177
H       1.135840    1.809017    0.119826
H      -0.272936    2.018978   -0.926216
H      -0.476299    1.956475    0.830018
H       0.225470   -0.438630    0.863064
H      -1.155969   -0.231575   -0.191542
H       0.331179   -0.213112   -2.194135
H       2.749822    0.143768   -1.817537
H       2.634179   -0.543780   -0.189934
H       2.345579   -2.103577   -2.835410
H       2.879591   -2.795270   -1.281666
H       1.086288   -2.642335    0.501493
H      -0.820239   -3.616804   -2.054086
