9

O       0.120330    1.331002    0.088730
C       0.072979   -0.011942    0.068056
N       0.111392   -0.727439   -1.050724
N       0.039799   -1.981939   -0.592595
N      -0.040867   -2.128470    0.717126
C      -0.021926   -0.875781    1.174860
H       0.183901    1.636364   -0.824671
H       0.047239   -2.770586   -1.217044
H      -0.074300   -0.650887    2.226583
