14

O      -0.047261    1.434906    0.005885
C      -0.001949    0.018865    0.001724
C      -1.406605   -0.483425    0.013091
C      -2.566539    0.221582    0.024654
O      -3.601418   -0.665257    0.031927
C      -3.002853   -1.888110    0.024355
N      -1.700406   -1.833986    0.012751
C      -3.830911   -3.029507    0.029192
C      -4.541645   -3.999671    0.033353
H       0.855233    1.764823    0.000835
H       0.515257   -0.373694   -0.888281
H       0.531272   -0.378517    0.880031
H      -2.814478    1.267279    0.029024
H      -5.164256   -4.860211    0.036976
