19

N      -0.031350    1.293785   -0.184370
C       0.033194   -0.011398    0.208702
O       1.052367   -0.511969    0.640489
C      -1.283557   -0.782271    0.090562
C      -1.049299   -2.283741   -0.084031
C      -2.342390   -3.077414    0.007624
O      -2.029039   -4.454114   -0.210501
C      -3.026496   -5.333419   -0.006948
N      -2.851383   -6.559662   -0.250479
H       0.792029    1.864343   -0.084034
H      -0.871756    1.711936   -0.541192
H      -1.847955   -0.592894    1.014745
H      -1.890610   -0.377512   -0.728454
H      -0.578363   -2.481794   -1.052521
H      -0.347009   -2.626631    0.679688
H      -2.806133   -2.949371    0.996576
H      -3.066323   -2.739617   -0.748304
H      -3.947020   -4.872443    0.380064
H      -3.697086   -7.080552   -0.027989
