19

C       0.075864    1.658472    0.173784
C       0.024448    0.147919    0.223428
C       1.147464   -0.774402   -0.235390
C       2.495204   -0.231586    0.222287
O       2.017285   -0.075809    1.588500
C       0.763572   -0.676717    1.231597
C       0.184006   -1.644923    2.195033
C      -0.980447   -1.306135    3.028695
O      -1.117869   -2.135638    1.873660
H       1.005345    2.034861    0.607924
H      -0.001534    2.025536   -0.855046
H      -0.752071    2.091386    0.745044
H      -0.942546   -0.293813   -0.006732
H       0.995342   -1.577188   -0.944363
H       3.300353   -0.973467    0.184555
H       2.846207    0.714810   -0.204926
H       0.879288   -2.399517    2.564398
H      -1.121781   -1.809743    3.983445
H      -1.421530   -0.314705    2.945106
