16

N      -0.016559    1.421432    0.130467
C       0.001817    0.033482    0.045577
C      -1.193478   -0.702068    0.038657
C      -1.172915   -2.086543    0.013026
C       0.039963   -2.794944   -0.007744
C       1.233293   -2.053826   -0.001021
C       1.216506   -0.669301    0.024587
C       0.059128   -4.217042   -0.036823
C       0.075366   -5.421940   -0.061852
H       0.811880    1.887431   -0.208319
H      -0.861248    1.864685   -0.198578
H      -2.143659   -0.176325    0.056708
H      -2.105927   -2.638811    0.005912
H       2.180829   -2.580526   -0.019114
H       2.152187   -0.117915    0.031626
H       0.089655   -6.482996   -0.083968
