18

C      -0.017256    1.490186    0.000002
C       0.021179   -0.012058   -0.032222
C       0.665500   -0.958167   -1.078505
C       0.048158   -1.916750   -0.033722
C       0.613613   -0.965530    1.050274
O      -0.018300   -0.971160    2.328848
C      -1.368457   -0.989241    2.248256
N      -2.037028   -1.000812    1.172307
C      -1.213382   -0.992202   -0.019724
H       0.992927    1.912055    0.043470
H      -0.513136    1.889288   -0.891154
H      -0.568739    1.845273    0.876933
H       0.199416   -0.964143   -2.066901
H       1.757112   -0.942130   -1.150931
H       0.058328   -3.005388   -0.021367
H       1.688896   -0.949687    1.232956
H      -1.830877   -0.995085    3.231792
H      -1.829013   -1.000205   -0.921187
