20

C      -0.287021    1.547707   -0.012742
C      -0.017677    0.046204    0.016113
C       0.766141   -0.510868   -1.196368
N       1.423395   -1.760309   -0.742322
C       2.623023   -1.619729    0.110249
C       3.102489   -0.247180    0.532801
O       2.046631    0.352046    1.281123
C       0.857387   -0.444996    1.188622
C       1.295918   -1.834461    0.726515
H       0.652958    2.104645    0.019870
H      -0.828890    1.833739   -0.920225
H      -0.892067    1.858633    0.845519
H      -0.970971   -0.496639    0.078170
H       0.108900   -0.755860   -2.035149
H       1.501972    0.214920   -1.563425
H       3.358774   -2.408864   -0.013449
H       3.991237   -0.339392    1.170758
H       3.369958    0.392710   -0.320903
H       0.354972   -0.413852    2.158879
H       0.944720   -2.751422    1.186792
