19

C      -0.149520    1.534785   -0.006502
C       0.016481    0.043492    0.095218
C       1.003640   -0.676423   -0.868265
O       1.754781   -1.234186    0.251239
C       0.775702   -0.777010    1.162576
C       0.922240   -0.410497    2.628905
C      -0.596760   -0.777962    2.798836
C      -0.603926   -1.441534    1.384534
O      -1.224204   -0.669050    0.329427
H       0.822464    2.029732   -0.094092
H      -0.742450    1.788089   -0.892900
H      -0.670930    1.931518    0.869072
H       0.536174   -1.451104   -1.484553
H       1.639711   -0.032373   -1.485217
H       1.569869   -1.112764    3.161940
H       1.238596    0.608557    2.867058
H      -0.814357   -1.456723    3.625153
H      -1.266490    0.081780    2.856201
H      -0.827264   -2.508076    1.323475
