15

C       0.050573    1.436484    0.005710
C       0.003661   -0.075305   -0.031005
O       1.035175   -0.740801   -0.080684
C      -1.287132   -0.751091   -0.006887
C      -2.567561   -0.263297    0.046249
O      -3.454406   -1.262895    0.049377
C      -2.758125   -2.453732   -0.002973
C      -1.424063   -2.192739   -0.038897
O      -0.405400   -3.062713   -0.093324
H       1.088825    1.768303   -0.019174
H      -0.489892    1.855901   -0.849571
H      -0.433350    1.811296    0.913929
H      -2.974091    0.734722    0.084407
H      -3.349064   -3.351362   -0.006803
H       0.403986   -2.513410   -0.105225
