16

O      -0.130966    0.002778    0.031327
C       0.005204    1.201709   -0.063929
C       1.280248    1.897449    0.046671
C       1.465096    3.354245    0.527690
C       2.699033    3.436791    1.403959
C       3.538029    2.399628    0.689193
C       2.692028    1.316339    0.132294
N       3.248362    2.374296   -0.783016
C       1.874209    2.989464   -0.852422
H      -0.864670    1.870574   -0.260155
H       0.578789    3.954248    0.691609
H       3.152349    4.433072    1.377122
H       2.504504    3.163196    2.445541
H       4.576404    2.223865    0.943963
H       2.955021    0.271778    0.032114
H       1.503053    3.402922   -1.779967
