17

O       0.265173    1.254347   -0.410672
C       0.105190   -0.074438   -0.005702
C       0.199766   -0.363152    1.530822
C      -1.309207   -0.647042    1.540594
N      -2.103124    0.620029    1.471830
C      -2.526778    0.317574    0.082906
C      -2.648779    1.467372   -0.818572
N      -2.814705    2.371155   -1.519588
C      -1.353912   -0.682856   -0.019031
H      -0.256054    1.813318    0.179226
H       0.798174   -0.659254   -0.614552
H       0.799978   -1.251548    1.749723
H       0.541028    0.468549    2.151802
H      -1.723311   -1.432249    2.177484
H      -2.855968    0.719755    2.142942
H      -3.475099   -0.236390    0.025171
H      -1.504418   -1.578329   -0.618048
