19

C      -0.047884    1.489911   -0.142537
C       0.053304   -0.008621    0.043787
C       1.368805   -0.738251   -0.099499
C       0.699431   -0.653984    1.254558
C       1.334996    0.185030    2.347114
C       0.038484   -1.914804    1.765067
O       1.032321   -2.745299    2.356421
H       0.851550    2.008747    0.199603
H      -0.182543    1.736879   -1.201541
H      -0.900553    1.907042    0.405478
H      -0.811263   -0.545490   -0.342255
H       1.388231   -1.694923   -0.610864
H       2.260626   -0.138010   -0.252011
H       1.888831    1.036481    1.944981
H       0.578329    0.574530    3.039666
H       2.031863   -0.428322    2.925077
H      -0.738149   -1.651482    2.502643
H      -0.461601   -2.434452    0.932215
H       0.587848   -3.470354    2.805007
