18

C       0.101687    1.498552    0.018485
C      -0.021145   -0.022539    0.032251
C      -1.460782   -0.507246   -0.063404
O       0.656406   -0.592047   -1.113373
C       1.991173   -0.689209   -1.070173
C       2.807171   -1.096354   -2.080254
O       4.093937   -1.074693   -1.591056
C       3.969095   -0.652808   -0.325007
N       2.752858   -0.406158    0.051383
H       1.148385    1.802680    0.088214
H      -0.327420    1.908851   -0.901278
H      -0.435195    1.926209    0.871256
H       0.451180   -0.418902    0.936614
H      -1.929656   -0.142907   -0.982907
H      -1.501464   -1.599583   -0.065775
H      -2.039882   -0.138968    0.788393
H       2.667944   -1.412399   -3.096802
H       4.873932   -0.557408    0.254130
