17

C      -0.085679    1.554311   -0.046840
C       0.052193    0.069146   -0.075967
C      -0.104405   -0.846872   -1.109794
C       0.138144   -2.178432   -0.635688
C       0.439848   -2.023715    0.696267
C       0.815942   -2.424399    2.114233
C       0.738824   -0.878781    2.425920
N       0.385393   -0.698796    1.009594
H       0.846378    2.053758    0.246764
H      -0.356429    1.920195   -1.040200
H      -0.864081    1.887091    0.651553
H      -0.371218   -0.579154   -2.122482
H       0.089008   -3.087303   -1.214102
H       0.086538   -3.030979    2.658132
H       1.809006   -2.862154    2.248553
H      -0.047874   -0.578168    3.124427
H       1.683881   -0.408669    2.714029
