11

O      -0.075870    1.438415    0.010257
C       0.034885    0.025830    0.001692
C      -1.393215   -0.531395    0.012392
C      -1.421895   -1.987201    0.005034
C      -1.417322   -3.189002   -0.001424
H       0.810274    1.811230    0.003794
H       0.561469   -0.338004   -0.892998
H       0.578434   -0.347425    0.882243
H      -1.910587   -0.143335    0.897898
H      -1.927337   -0.134099   -0.858967
H      -1.427080   -4.250544   -0.007172
