18

N      -0.024655    1.275056    0.117101
C      -0.002721    0.013994    0.080686
O      -1.147811   -0.676365   -0.085725
C      -1.081488   -2.087318   -0.007356
C      -1.742263   -2.728020    1.277778
C      -3.112082   -2.406764    0.587857
C      -2.302167   -2.791880   -0.697185
C      -1.926643   -4.240361   -0.384008
C      -1.562297   -4.197449    0.904076
H       0.921890    1.633590    0.224967
H       0.885825   -0.627780    0.160782
H      -0.082832   -2.447287   -0.277709
H      -1.491712   -2.393318    2.283499
H      -3.958547   -3.044614    0.849510
H      -3.376399   -1.348535    0.627744
H      -2.621037   -2.522935   -1.702835
H      -1.927870   -5.067026   -1.079838
H      -1.181834   -4.980351    1.544585
