23

C      -0.279535    1.585121    0.092970
C      -0.019574    0.074934    0.015692
C       0.608116   -0.350314   -1.332296
C       1.903710    0.332109   -1.706785
C       3.021415    0.338780   -0.979759
C       3.200924   -0.327186    0.363744
C       2.175932    0.084849    1.437848
C       0.760771   -0.470016    1.225964
O      -0.057856   -0.205273    2.364252
H       0.637089    2.162623   -0.057408
H      -0.990034    1.889222   -0.683165
H      -0.700584    1.848686    1.065489
H      -0.993676   -0.427626    0.075662
H       0.758674   -1.440154   -1.316870
H      -0.128889   -0.164399   -2.120483
H       1.913417    0.854738   -2.660621
H       3.889058    0.861521   -1.375988
H       3.162287   -1.421007    0.245114
H       4.204881   -0.106610    0.739693
H       2.530654   -0.295664    2.406827
H       2.138801    1.175570    1.528387
H       0.851742   -1.562702    1.086025
H       0.421666   -0.490113    3.148490
