16

N       0.068626    1.378334    0.058304
C       0.004663   -0.001023    0.008861
C      -1.147466   -0.797987    0.029935
N      -2.448625   -0.215075    0.015174
C      -0.717672   -2.140583    0.033769
C       0.672278   -2.144033    0.010211
N       1.083701   -0.815276    0.006274
C       1.646259   -3.193756   -0.007085
O       2.854981   -3.003118   -0.022027
H       0.780736    1.797357   -0.525644
H      -0.846555    1.771587   -0.131621
H      -2.899528   -0.272091    0.923858
H      -3.058235   -0.685472   -0.645398
H      -1.343860   -3.021327    0.036811
H       2.058757   -0.562727    0.029077
H       1.219795   -4.219234   -0.004274
