14

O      -0.045022    1.325080    0.270350
C      -0.020988   -0.058913    0.106970
C       1.074434   -0.577676   -0.673963
C       1.985074   -0.996654   -1.338109
C      -0.497137   -0.896285    1.264085
N      -1.579556   -0.241936    1.993049
C      -2.371693   -0.127629    0.829540
O      -3.432614    0.386435    0.632729
C      -1.337431   -0.873277   -0.006120
H      -0.215685    1.729440   -0.588132
H       2.796437   -1.363887   -1.917591
H       0.071783   -1.706582    1.699281
H      -1.417428    0.557428    2.596048
H      -1.485888   -1.622122   -0.770334
