18

C      -0.487875    1.416136    0.036799
C       0.014492   -0.027776    0.014972
C       1.057547   -0.327469   -1.089470
O       2.062236   -1.163503   -0.516464
C       1.592953   -1.658947    0.726676
C       0.729013   -0.529322    1.307828
C       1.603857    0.530149    1.942878
O       1.330799    1.121040    2.957130
H       0.334520    2.129416    0.153665
H      -1.007183    1.657295   -0.896317
H      -1.187262    1.579168    0.862046
H      -0.846295   -0.690076   -0.131199
H       0.592854   -0.826765   -1.950453
H       1.546590    0.584432   -1.452718
H       0.989882   -2.572466    0.600834
H       2.467789   -1.909736    1.335458
H       0.007874   -0.866174    2.056390
H       2.553843    0.733103    1.397144
