12

O       0.006207    0.083867    0.051194
C      -0.012757    1.275460    0.016343
C      -1.163887    2.306854   -0.025419
O      -0.901218    2.923887    1.280164
C       0.258106    3.505521    0.655986
C      -0.353807    3.455010   -0.750980
O       0.824027    2.875404   -1.341493
C       1.104955    2.343628   -0.002631
H      -2.193195    2.009113   -0.199688
H       0.720489    4.335161    1.185936
H      -0.841854    4.237454   -1.327642
H       2.143045    2.089350    0.187656
