15

O       0.192484    1.273711    0.126744
C       0.128298   -0.063036    0.028750
N       0.141237   -0.756733   -1.092542
C      -0.033797   -2.031425   -0.633773
C      -0.177941   -2.127067    0.709220
C      -0.013495   -3.547280    1.140016
C      -0.213980   -4.205025   -0.273699
O       0.062903   -3.209655   -1.299207
N      -0.000366   -0.810748    1.160143
H       0.254102    1.607776   -0.777139
H       0.980516   -3.763311    1.559384
H      -0.757962   -3.935762    1.843510
H       0.443373   -5.056622   -0.455466
H      -1.256684   -4.521384   -0.388742
H      -0.192160   -0.429896    2.071106
