18

O       0.015520    1.396974   -0.134654
C       0.035937   -0.011003    0.034617
C      -1.399863   -0.510478   -0.047214
C      -1.501196   -2.027057    0.107471
C      -2.939059   -2.535692    0.140305
O      -3.885225   -1.815855    0.334196
C      -3.090629   -4.038245   -0.087285
O      -4.419342   -4.424961    0.138773
H       0.919206    1.720893   -0.081356
H       0.648399   -0.497203   -0.743792
H       0.472310   -0.290540    1.008634
H      -1.999107   -0.022649    0.726520
H      -1.828801   -0.202175   -1.006684
H      -0.951388   -2.551166   -0.686377
H      -1.028183   -2.350704    1.047410
H      -2.758010   -4.239794   -1.121660
H      -2.373701   -4.557503    0.572918
H      -4.492456   -5.365462   -0.047147
