21

C      -0.176087    1.560417   -0.008336
C       0.027941    0.045119   -0.014419
C       0.945609   -0.473500   -1.123769
C       1.367455   -1.937869   -0.781651
C       2.732617   -1.690265   -1.465553
C       2.440567   -0.399404   -0.663915
C       1.920414   -1.277636    0.520674
C       0.803040   -0.526170    1.227951
O       1.395900    0.454108    2.070097
H       0.774179    2.091530    0.088996
H      -0.658231    1.886459   -0.935816
H      -0.821846    1.878178    0.818880
H      -0.952824   -0.442153   -0.090940
H       0.701925   -0.224410   -2.159713
H       0.735794   -2.827127   -0.843544
H       3.572757   -2.301954   -1.123753
H       2.727596   -1.606768   -2.556568
H       3.061629    0.492991   -0.582699
H       2.638303   -1.820312    1.138068
H       0.167767   -1.198300    1.823621
H       0.692862    0.922058    2.530845
