17

C      -0.005373    1.503541    0.007193
C       1.308710    0.745679   -0.010399
C       0.008105    0.007861    0.034995
C      -0.487805   -0.877848    1.145594
C      -1.737984   -1.521901    0.545471
O      -1.898829   -1.024340   -0.771174
C      -0.517266   -0.876940   -1.093617
O       0.053281   -2.150154   -0.797280
C      -0.431483   -2.275443    0.527974
H      -0.281855    2.030630    0.914129
H      -0.324189    1.996819   -0.905592
H       1.876876    0.727405   -0.935059
H       1.921504    0.759904    0.884630
H      -0.357222   -0.675916    2.199026
H      -2.650251   -1.787755    1.057665
H      -0.373111   -0.602837   -2.134991
H      -0.194637   -3.204070    1.024773
