25

C      -0.083744    1.577044    0.012796
C       0.022716    0.049411    0.000355
C       0.688463   -0.476407   -1.284026
C       0.782735   -2.008523   -1.297489
C       1.484841   -2.540630   -0.040365
C       0.823612   -2.026510    1.251067
C       1.513962   -2.564201    2.507831
C       0.755665   -0.483138    1.251671
O       2.046009    0.110641    1.410942
H       0.909879    2.033396    0.036720
H      -0.610818    1.942754   -0.874639
H      -0.628016    1.928426    0.896032
H      -0.994210   -0.368746    0.037951
H       0.132536   -0.120232   -2.158807
H       1.695843   -0.042868   -1.379693
H      -0.230936   -2.429504   -1.347125
H       1.304172   -2.350389   -2.198815
H       1.489148   -3.636594   -0.040253
H       2.544552   -2.242732   -0.054318
H      -0.218055   -2.380537    1.250030
H       2.537494   -2.185371    2.578455
H       0.984613   -2.251480    3.414365
H       1.550198   -3.658604    2.500093
H       0.207274   -0.156962    2.144220
H       2.587537   -0.136254    0.654503
