17

N       0.127681    1.418682   -0.124867
C      -0.025132    0.020047   -0.031347
C      -1.121956   -0.802639    0.109305
C      -0.641198   -2.138176    0.225490
C       0.732055   -2.098560    0.144228
N       1.094414   -0.775128   -0.013796
C       1.737463   -3.173550    0.197527
C       1.764881   -4.195588    1.263821
O       1.267417   -4.503713   -0.037496
H       0.312327    1.725031   -1.076412
H      -0.712880    1.888480    0.188262
H      -2.152822   -0.482026    0.100358
H      -1.229393   -3.038105    0.314390
H       2.032449   -0.412217    0.008048
H       2.688444   -2.943511   -0.289364
H       2.703671   -4.679932    1.533436
H       1.014063   -4.145077    2.050499
