15

O       0.196616    1.363986   -0.081039
C       0.097137    0.017360   -0.068556
C       0.262166   -0.832769   -1.131955
N       0.055506   -2.097602   -0.596269
C       0.106422   -3.359410   -1.317643
C       1.430877   -3.677644   -1.847134
C       2.512168   -3.942871   -2.296225
C      -0.212611   -1.933979    0.723185
N      -0.198049   -0.663500    1.077260
H       0.028279    1.652486    0.824281
H       0.511120   -0.676233   -2.166061
H      -0.220403   -4.143001   -0.626036
H      -0.622998   -3.337326   -2.137066
H       3.472291   -4.175729   -2.686563
H      -0.413354   -2.771013    1.375274
