21

C      -0.170592    1.509218    0.008660
C      -0.035181   -0.009195   -0.114003
C       0.794875   -0.479435   -1.334375
O       0.229625    0.029095   -2.548577
C       2.163141    0.052067   -1.257025
C       3.290933    0.453049   -1.153904
C       0.865839   -2.012913   -1.358800
C      -0.195762   -2.834880   -2.045737
C       1.194809   -2.744275   -2.627193
H       0.806833    1.976127    0.157728
H      -0.608569    1.939891   -0.895959
H      -0.808629    1.772018    0.857514
H       0.421302   -0.423856    0.791542
H      -1.025142   -0.478088   -0.200915
H      -0.722828   -0.107239   -2.495389
H       4.287204    0.813169   -1.078005
H       1.272639   -2.426503   -0.440701
H      -0.510305   -3.757660   -1.571118
H      -0.986741   -2.322973   -2.583249
H       1.309846   -2.140666   -3.519847
H       1.843628   -3.610719   -2.570594
