19

C      -0.005402    1.436748   -0.048826
O       1.335784    1.907579    0.013765
C       2.093837    0.826783    0.538229
C       3.559228    0.784187    0.152852
C       4.068179   -0.609819    0.472261
C       3.286449   -1.664669    0.725065
C       1.769069   -1.642399    0.688125
C       1.355614   -0.371803   -0.027659
O       0.000128    0.024609    0.125109
H      -0.621347    1.870190    0.752104
H      -0.413863    1.719314   -1.029670
H       2.008984    0.805960    1.638049
H       3.677188    1.009600   -0.915628
H       4.142161    1.536818    0.695289
H       5.147482   -0.733635    0.507081
H       3.749779   -2.619051    0.961535
H       1.386585   -2.535129    0.180936
H       1.351670   -1.658531    1.703947
H       1.602531   -0.464245   -1.098977
