18

C      -0.003400    1.410857   -0.235564
O       1.263365    1.593823    0.422753
C       1.451525    0.166466    0.554061
C       0.037705   -0.116990    0.004350
C      -0.957611   -0.657926    1.024297
C      -2.416766   -0.768894    0.496872
O      -2.732232   -2.178060    0.616642
C      -1.621075   -2.749598    1.136266
N      -0.606731   -2.042198    1.408166
H      -0.811663    1.961384    0.264560
H       0.031402    1.716945   -1.289376
H       2.276007   -0.196345   -0.071895
H       1.629487   -0.136722    1.591545
H       0.008994   -0.730527   -0.899852
H      -0.910406   -0.027162    1.920697
H      -3.142561   -0.207089    1.089616
H      -2.520702   -0.486276   -0.555557
H      -1.699924   -3.821213    1.283683
