23

C      -0.071767    1.521721    0.072175
C       0.012394    0.005493    0.010890
C       0.697568   -0.501891   -1.257605
O       0.888277   -1.907008   -1.217520
C       1.597209   -2.358275   -0.058124
C       3.080299   -1.978483   -0.108460
C       0.858990   -1.856745    1.195923
C       1.518278   -2.223923    2.516368
O       0.743960   -0.436775    1.151425
H       0.928185    1.964181    0.024143
H      -0.665383    1.910215   -0.761131
H      -0.539518    1.836784    1.008465
H      -1.000843   -0.431042    0.050972
H       0.076393   -0.305368   -2.137392
H       1.654260    0.027027   -1.391258
H       1.505463   -3.449844   -0.099119
H       3.234761   -0.919886    0.115635
H       3.652277   -2.561988    0.618463
H       3.478239   -2.190795   -1.104431
H      -0.154433   -2.292124    1.159925
H       2.498880   -1.750213    2.610312
H       0.897429   -1.883744    3.349347
H       1.643901   -3.308171    2.598393
