16

C      -0.101803    1.500681    0.022628
C       0.047070   -0.000093    0.002319
O       1.100238   -0.591969   -0.005563
N      -1.159644   -0.727967   -0.007294
C      -1.270611   -2.103107   -0.021954
C      -2.613396   -2.384988   -0.023512
N      -3.256656   -3.621292   -0.112196
C      -3.244827   -1.102850   -0.007451
N      -2.370360   -0.115514    0.006121
H       0.895829    1.938457    0.026325
H      -0.666053    1.843121   -0.848140
H      -0.662218    1.820020    0.904579
H      -0.390160   -2.721634   -0.032835
H      -2.684758   -4.398175    0.189777
H      -4.146486   -3.644545    0.367285
H      -4.304849   -0.888367   -0.006318
