18

C      -0.025388    1.581572    0.028974
C       1.479012    1.830398    0.024034
C       1.957591    0.870873    1.130879
C       2.489363   -0.080573    0.127598
C       2.208396    0.881240   -1.050634
C       1.320291    0.202608   -2.044811
C       0.207231   -0.312553   -1.511544
C      -0.002207    0.026340   -0.061196
N       1.207664   -0.349853    0.788664
H      -0.459935    1.918778    0.977128
H      -0.574714    2.036359   -0.798584
H       1.810415    2.867640    0.024342
H       2.215175    1.084029    2.161152
H       3.268220   -0.834374    0.173529
H       3.102692    1.344843   -1.466761
H       1.604009    0.091754   -3.085844
H      -0.529083   -0.885371   -2.063839
H      -0.879784   -0.453531    0.371815
