17

O       0.175943    1.391950    0.261076
C       0.052382    0.007402    0.087526
C      -1.425898   -0.396988    0.183223
C      -1.648461   -1.856659    0.451340
C      -1.022374   -2.880066   -0.152620
C      -0.064373   -2.812370   -1.244755
C       0.634421   -1.770125   -1.743579
C       0.701016   -0.393872   -1.243726
O       1.318114    0.462753   -1.860119
H       0.740381    1.683515   -0.475642
H       0.603455   -0.533689    0.879226
H      -1.861850    0.199072    0.989224
H      -1.951458   -0.096053   -0.736406
H      -2.404013   -2.101214    1.193605
H      -1.305787   -3.887783    0.138898
H       0.085075   -3.762464   -1.754877
H       1.256763   -1.929089   -2.619155
