20

C       1.105484    1.338438    0.404520
N       0.752306   -0.064672    0.329652
C      -0.662383   -0.595994    0.326488
C      -0.349818   -2.045588   -0.061366
C       0.694496   -2.332703    0.719823
C       0.902967   -1.017906    1.489317
C      -0.589335   -0.724022    1.917883
C      -0.918983    0.518590    2.738844
O      -1.213597   -1.827815    2.539236
H       2.188879    1.426727    0.257303
H       0.626104    1.857829   -0.432657
H       0.863909    1.895657    1.323008
H      -1.433858   -0.036123   -0.204525
H      -0.885803   -2.656215   -0.772340
H       1.263965   -3.242811    0.832050
H       1.754476   -0.906619    2.161711
H      -2.010774    0.615604    2.816395
H      -0.523679    0.410268    3.754374
H      -0.552104    1.452015    2.321575
H      -2.029788   -1.523077    2.948016
