17

O      -0.784542    1.033599   -0.678367
C      -0.008327    1.169928    0.229868
C       1.298284    1.943015    0.130764
C       1.520345    2.763570   -1.117988
C       0.606043    3.942201   -1.329657
C       1.962937    4.165574   -0.715942
C       2.029103    4.251029    0.795424
C       1.450221    2.929981    1.317178
O       1.161749    2.678224    2.456883
H      -0.192854    0.734947    1.234402
H       2.095445    1.195348    0.271642
H       1.943106    2.277173   -1.987798
H       0.453174    4.271251   -2.350890
H      -0.275408    4.038195   -0.702069
H       2.716623    4.684452   -1.295724
H       3.064693    4.320616    1.152745
H       1.485036    5.092634    1.236111
