13

O       0.540457    1.209827    0.321115
C       0.264126   -0.085883    0.171416
N       0.307705   -0.586179   -1.060755
C       0.030079   -1.881408   -1.199586
C      -0.293215   -2.687438   -0.109709
N      -0.336625   -2.186829    1.121823
C      -0.062561   -0.890803    1.289945
C      -0.132297   -0.408387    2.694915
O       0.076897    0.718806    3.068367
H       0.731947    1.552100   -0.565508
H       0.066659   -2.286525   -2.207422
H      -0.517767   -3.741944   -0.234363
H      -0.408691   -1.230868    3.388774
