19

C      -0.078616    1.478196    0.267795
C       0.009329    0.008952   -0.074750
O       1.045448   -0.534289   -0.383286
C      -1.295738   -0.819030   -0.047067
C      -1.683270   -1.175679   -1.482901
C      -1.135557   -2.045366    0.876971
O      -1.602193   -1.564413    2.129063
C      -2.683063   -0.736801    1.796345
O      -2.347320   -0.075787    0.585528
H       0.880274    1.956063    0.064477
H      -0.883032    1.963776   -0.292403
H      -0.333970    1.591455    1.326689
H      -0.879880   -1.749015   -1.952793
H      -2.602429   -1.767695   -1.487616
H      -1.855384   -0.272038   -2.074759
H      -1.755131   -2.882227    0.519442
H      -0.100060   -2.369071    0.976863
H      -3.605340   -1.326514    1.648730
H      -2.829854   -0.003045    2.595055
