15

O      -0.057191    0.019541   -0.040391
C      -0.056525    1.217421   -0.010566
C      -1.255990    2.192975   -0.004229
O      -1.381255    2.626636    1.377861
C      -0.356039    3.630812    1.153564
C       1.035359    3.011684    1.353597
C       1.139621    2.192987    0.040556
O       0.725553    3.152702   -0.950673
C      -0.529844    3.503220   -0.395824
H      -2.185523    1.839782   -0.448527
H      -0.558372    4.556292    1.692792
H       1.820974    3.773545    1.370673
H       1.082687    2.410723    2.263852
H       2.105031    1.763232   -0.215785
H      -1.027213    4.271768   -0.980022
