23

C      -0.865005    1.196700   -0.080540
C      -0.037201   -0.093844   -0.092165
C       1.018491   -0.150207   -1.192559
C       2.304326    0.621317   -1.014235
C       2.246376   -0.844847   -0.658415
C       1.990144   -1.226538    0.793403
C       0.710897   -0.457880    1.235241
C       1.021363    0.708341    2.176668
O       1.575620    0.145681    3.361361
H      -0.239211    2.081212    0.076424
H      -1.376620    1.326254   -1.040143
H      -1.632439    1.180584    0.700643
H      -0.731640   -0.920665   -0.293738
H       0.670214   -0.321659   -2.206315
H       2.843376    0.886934   -1.917755
H       2.388797    1.363117   -0.227931
H       2.809891   -1.536651   -1.275514
H       1.816784   -2.306901    0.850938
H       2.829286   -1.008875    1.461326
H       0.076186   -1.123907    1.829509
H       1.725700    1.421468    1.723428
H       0.098863    1.261311    2.406527
H       1.811849    0.866383    3.952310
