13

O      -0.022376    0.058454   -0.605460
C      -0.001645    1.158320   -0.148478
C      -1.092955    2.124404    0.373488
C       0.000070    3.203425    0.563773
O       0.324794    3.466800    1.943308
C       1.377636    2.657942    2.224552
N       1.900736    1.942908    1.313452
C       1.121001    2.208071    0.099840
H      -1.858126    2.356831   -0.372913
H      -1.587647    1.809004    1.296561
H      -0.145446    4.154181    0.054108
H       1.714583    2.701637    3.253924
H       1.764400    2.435096   -0.753589
