19

O      -0.015351   -0.012783   -0.050828
C      -0.006674    1.195832    0.014483
C      -1.271049    2.012367    0.005335
C      -1.699435    2.884185    1.182206
C      -1.075656    3.518637   -0.021859
C       0.388835    3.951487   -0.027731
C       1.241836    3.171889    1.010757
C       1.282289    2.008667   -0.020633
C       1.133698    3.121408   -1.116603
H      -2.076257    1.550553   -0.555259
H      -2.771169    2.988408    1.311092
H      -1.152722    2.829501    2.114582
H      -1.723604    4.090275   -0.679583
H       0.482186    5.039546   -0.045454
H       2.231731    3.625449    1.106557
H       0.851778    2.982508    2.012140
H       2.141234    1.338217   -0.048087
H       0.589861    2.875387   -2.032342
H       2.109960    3.543164   -1.369501
