18

C       0.029786   -1.219525    0.086827
C      -0.031046   -0.016264    0.039185
C      -0.040973    1.403085   -0.023296
C      -1.187107    2.105632    0.040611
C      -1.195702    3.582993   -0.010108
N      -0.285909    4.299281    0.936437
C       0.028239    4.283933   -0.495268
C       1.202337    3.432472   -0.926448
C       1.298747    2.112986   -0.135755
H       0.065550   -2.279438    0.133991
H      -2.137174    1.588269    0.123621
H      -2.157700    4.047836   -0.204768
H      -0.705533    5.189931    1.192012
H      -0.119839    5.202552   -1.059956
H       1.084617    3.213517   -1.995401
H       2.138694    3.991106   -0.816965
H       1.668154    2.323068    0.873506
H       2.028377    1.449639   -0.608203
