21

C      -0.146888    1.598910    0.024504
C       0.018199    0.072326   -0.030535
C       0.854058   -0.417034   -1.218768
C       1.838473   -1.261561   -0.878514
C       1.891078   -1.439969    0.595452
C       2.184904   -0.220997    1.436463
C       0.752608   -0.568003    1.146995
C       0.283855   -1.737713    2.036572
C       1.446182   -2.628093    1.473697
H       0.822095    2.099420    0.115053
H      -0.634115    1.975987   -0.881220
H      -0.759697    1.892542    0.882441
H      -0.990337   -0.363537   -0.100356
H       0.664297   -0.064942   -2.229413
H       2.523759   -1.726564   -1.580204
H       2.563649   -0.348889    2.448235
H       2.605484    0.624666    0.904933
H       0.280279   -1.552500    3.116295
H      -0.701491   -2.113147    1.749160
H       1.078702   -3.475519    0.891521
H       2.183294   -2.995508    2.195015
