21

C      -0.231043   -1.134924   -0.397152
C      -0.072113    0.038181   -0.185197
C       0.127998    1.451964    0.090932
C      -0.615326    1.973664    1.346436
C       0.055964    3.331404    1.648077
C       1.461307    3.238666    1.020511
C       2.068521    4.443767    0.343428
C       2.652406    3.922517    1.634726
C       1.592518    1.852931    0.390575
H      -0.373951   -2.168976   -0.590416
H      -0.213303    2.033797   -0.776647
H      -1.694614    2.047618    1.193324
H      -0.448881    1.268454    2.167511
H      -0.512581    4.151071    1.194979
H       0.094137    3.528107    2.723962
H       2.633414    4.292079   -0.571237
H       1.515484    5.377609    0.375287
H       2.497114    4.505538    2.537228
H       3.611813    3.415896    1.594231
H       2.014896    1.135611    1.104836
H       2.224663    1.840312   -0.501428
