21

C      -0.132804    1.746889    0.409495
C      -0.036782    0.271270   -0.001730
C       0.797948   -0.546946    1.018700
C       2.179943   -0.085587    1.127518
N       3.270806    0.290713    1.193523
C      -1.424427   -0.337386   -0.118582
C      -2.229964   -0.191937   -1.364412
N      -1.758402   -1.504080   -0.939333
C      -0.748224   -2.153716   -1.761398
H       0.860422    2.190083    0.524383
H      -0.679982    2.321146   -0.342984
H      -0.662525    1.854064    1.363208
H       0.472472    0.216891   -0.969147
H       0.330686   -0.488831    2.009565
H       0.808525   -1.605315    0.738492
H      -1.965567   -0.332317    0.829650
H      -3.303456   -0.026249   -1.323687
H      -1.732694    0.272693   -2.216792
H      -0.025121   -1.472024   -2.235381
H      -0.194722   -2.881682   -1.158963
H      -1.256900   -2.703034   -2.559749
