21

C      -0.153506    1.450432    0.080854
C       0.066854   -0.034758    0.053003
C       0.920964   -0.781194   -1.005080
C       0.842069   -1.916476    0.021783
C       0.802753   -0.874179    1.192163
C      -0.281866   -1.691893    1.902429
C      -0.690232   -2.039687    0.446926
C      -1.605268   -3.166367    0.061669
O      -1.174136   -0.764897   -0.021524
H       0.802469    1.981581    0.105846
H      -0.702735    1.772005   -0.810325
H      -0.735793    1.739505    0.961245
H       0.476772   -0.904293   -1.996738
H       1.939197   -0.387817   -1.080860
H       1.460808   -2.812454    0.020629
H       1.687668   -0.452996    1.666660
H       0.151623   -2.543673    2.435201
H      -1.034688   -1.190826    2.517276
H      -2.609768   -2.997336    0.463754
H      -1.684361   -3.246613   -1.026915
H      -1.233029   -4.116907    0.454790
