17

C       0.164937    1.469857    0.032411
C       0.024245   -0.018614    0.046908
C      -0.974801   -0.795816    0.856738
C       0.496262   -1.083208    1.011225
C       1.074405   -1.837095   -0.205492
C       0.105314   -2.099583   -1.301669
N       0.634797   -0.739804   -1.159738
C       2.409881   -2.352322   -0.210855
N       3.481688   -2.787272   -0.176836
H       1.191543    1.758850   -0.211302
H      -0.497071    1.912977   -0.720445
H      -0.096109    1.893231    1.006642
H      -1.380006   -0.216703    1.681574
H      -1.685505   -1.510039    0.456567
H       1.037870   -0.989929    1.942450
H       0.502534   -2.597967   -2.181006
H      -0.929944   -2.334017   -1.085497
