16

C      -0.046199    1.449720   -0.264296
C      -0.086288   -0.014793   -0.006158
C      -1.092769   -0.937686    0.042401
C      -2.578596   -0.756323   -0.148197
C      -2.949422   -0.048246   -1.372748
C      -3.257970    0.540582   -2.373856
C      -0.407340   -2.143581    0.354443
N       0.883898   -1.973793    0.482127
O       1.090070   -0.616423    0.251406
H       0.800278    1.700449   -0.909883
H      -0.968783    1.770722   -0.750644
H       0.071478    2.011870    0.669239
H      -3.053657   -1.744707   -0.151478
H      -3.011551   -0.227618    0.712121
H      -3.532889    1.049886   -3.264259
H      -0.823683   -3.133569    0.485406
