16

O      -0.248580    1.400152   -0.039566
C      -0.076282    0.015075    0.052050
C      -0.403495   -0.770898    1.287943
C      -1.275518   -0.869315    0.018916
C      -2.439972   -0.159287    0.740979
C      -3.657757   -0.930412    0.893349
N      -4.642199   -1.519241    1.040201
C      -1.554279   -0.128354    2.060830
O      -1.969321   -1.008135    3.067818
H       0.453915    1.826406    0.462680
H       0.771074   -0.375522   -0.511720
H       0.268779   -1.495331    1.730555
H      -1.396135   -1.678086   -0.689979
H      -2.678641    0.825022    0.329884
H      -1.381013    0.885588    2.445813
H      -2.841830   -0.742303    3.380012
