20

C      -0.146296    1.521180    0.015317
C       0.061514    0.008009    0.042467
C       0.993201   -0.550201   -1.088966
C       2.027989   -1.301852   -0.212771
C       1.109566   -2.006929    0.838436
C       0.830049   -0.539513    1.269068
C       2.317544   -0.256217    0.911007
C       3.093293   -2.005446   -0.891317
N       3.947442   -2.569359   -1.430037
H       0.801112    2.065963    0.083967
H      -0.635888    1.830789   -0.913972
H      -0.779428    1.845900    0.848023
H      -0.919750   -0.476600   -0.011676
H       0.479219   -1.222341   -1.779992
H       1.464903    0.244121   -1.673971
H       0.278502   -2.605062    0.455343
H       1.683575   -2.572876    1.574064
H       0.428612   -0.303330    2.254138
H       3.013458   -0.639171    1.659097
H       2.611515    0.748012    0.598330
