17

O      -0.108050   -0.005254   -0.145723
C      -0.005025    1.175063    0.075360
C       1.277681    1.941275    0.025581
C       1.546782    2.852780   -1.203846
O       2.849914    2.250689   -1.391629
C       2.628200    1.303016   -0.313227
C       3.186469    1.688090    1.073764
C       3.122092    3.173525    1.274050
C       1.851571    2.382137    1.402775
H      -0.899315    1.788153    0.338120
H       0.890655    2.655613   -2.060960
H       1.599085    3.932319   -1.023565
H       2.730483    0.262244   -0.622529
H       3.793626    1.042643    1.696148
H       3.525816    3.524848    2.218104
H       3.302064    3.839047    0.437394
H       1.281329    2.360309    2.323956
