16

C      -0.121913    1.477287    0.084773
N      -0.054937    0.045792   -0.167102
C      -1.150181   -0.751012   -0.068344
C      -1.313133   -2.128805    0.000715
C      -0.279252   -3.130207    0.047393
O      -0.461032   -4.331325    0.108475
C      -2.743981   -2.335853    0.024375
C      -3.319289   -1.121975   -0.024344
O      -2.342621   -0.130920   -0.079098
H       0.847209    1.916142   -0.158712
H      -0.878070    1.931243   -0.558943
H      -0.369034    1.716814    1.127847
H       0.819905   -0.410003    0.034990
H       0.762986   -2.724323    0.024895
H      -3.234471   -3.294406    0.074172
H      -4.330939   -0.756149   -0.027433
