17

N      -0.103041    1.238078    0.316245
C      -0.030398    0.008837    0.019583
O       1.152548   -0.609901   -0.248415
C       1.127397   -1.845808   -0.979087
O       0.130613   -2.709894   -0.565533
C      -1.149366   -2.122976   -0.787671
C      -1.260401   -0.850464    0.024809
C      -2.097824   -0.787360    1.261642
N      -2.559373   -0.181375    0.011022
H       0.819102    1.673765    0.299378
H       1.022164   -1.600674   -2.049160
H       2.091330   -2.319104   -0.788216
H      -1.283996   -1.906177   -1.859299
H      -1.900975   -2.854330   -0.486988
H      -2.638937   -1.676458    1.576027
H      -1.754025   -0.134266    2.057392
H      -2.382347    0.822861    0.045276
