18

C       0.018645    1.510218    0.084407
C       1.579401    1.532064   -0.044385
C       1.551318    0.031916    0.178955
O       2.501817   -0.910542   -0.289981
C       2.282869   -1.745148    0.879797
C       1.344489   -0.700999    1.531326
C      -0.176900   -0.857391    1.245941
C       0.004352   -0.048364   -0.065820
H      -0.344693    1.855501    1.055967
H      -0.516652    2.053700   -0.695580
H       1.890013    1.770192   -1.066845
H       2.156633    2.147776    0.651555
H       1.816870   -2.704068    0.619696
H       3.223814   -1.932819    1.408373
H       1.665967   -0.300377    2.493396
H      -0.497781   -1.894215    1.104891
H      -0.836486   -0.394521    1.986274
H      -0.435964   -0.424404   -0.990053
