18

O      -0.045589   -0.040369   -0.207870
C       0.050554    1.087715    0.217782
C       1.283901    1.909888    0.163492
C       1.586012    3.155874    0.995806
N       2.581576    3.548273   -0.074936
C       3.578922    2.441991    0.120933
C       2.674875    1.256856   -0.264820
C       2.365097    1.644640   -1.734970
C       1.647033    2.820092   -1.081780
H      -0.832342    1.603959    0.661760
H       0.749608    3.861179    1.007034
H       2.004632    3.062389    2.002559
H       4.432241    2.559806   -0.551764
H       3.942109    2.441684    1.151015
H       2.935159    0.240787    0.022314
H       3.203999    1.834194   -2.410582
H       1.641652    0.971064   -2.198733
H       0.944908    3.491144   -1.573244
