19

C      -0.247658    1.575627   -0.032085
C       0.037109    0.080325   -0.020459
C       1.175858   -0.492356   -0.934291
C       1.779156   -1.251244    0.285694
C       2.886710   -0.515057    1.079405
O       2.648739    0.896833    0.967530
C       1.895299    0.161456    1.934309
C       0.724828   -0.584291    1.214461
O      -0.025795   -1.405305    2.061786
H       0.668349    2.149116    0.126737
H      -0.680757    1.882913   -0.990396
H      -0.965032    1.849661    0.751113
H      -0.887306   -0.481369   -0.195766
H       0.826357   -1.141295   -1.739596
H       1.836898    0.270567   -1.348095
H       1.857192   -2.336807    0.251017
H       3.908827   -0.818413    1.276382
H       1.940929    0.494145    2.967079
H      -0.584261   -0.842487    2.610790
