22

C       0.000890    1.486716    0.112712
N       0.014827    0.035177    0.069958
C      -1.061849   -0.609436   -0.077478
O      -2.283796    0.018882   -0.125338
C      -3.285255   -0.493684   -1.014006
C      -3.461701   -2.000118   -0.893343
C      -2.105431   -2.680571   -1.082476
C      -1.085467   -2.130931   -0.067802
C       0.304583   -2.740580   -0.248639
H       0.866979    1.863397   -0.441274
H      -0.912595    1.939815   -0.287551
H       0.119300    1.821117    1.151165
H      -4.199516    0.048446   -0.758865
H      -3.011548   -0.228211   -2.045921
H      -3.870385   -2.243621    0.095074
H      -4.189198   -2.337785   -1.639945
H      -2.188837   -3.766127   -0.964899
H      -1.740001   -2.500820   -2.103194
H      -1.459119   -2.404613    0.931975
H       0.716633   -2.486473   -1.230104
H       0.998465   -2.363915    0.503617
H       0.249460   -3.831552   -0.170376
