17

C       0.009847    1.598528    0.091002
C       1.516384    1.845744   -0.029221
C       2.104673    0.773411   -0.585823
C       2.787678   -0.312236    0.301204
O       2.051356   -0.263995    1.566595
C       0.895988   -0.868719    0.938245
C       0.000452    0.052972   -0.052064
C       1.079638   -0.233334   -1.121281
C       1.754551   -1.336510   -0.271726
H      -0.337080    1.955599    1.068327
H      -0.630561    2.073318   -0.666260
H       2.019232    2.536706    0.640067
H       3.859771   -0.438429    0.450135
H       0.352056   -1.504216    1.637840
H      -0.988184   -0.402827   -0.184672
H       0.863235   -0.303933   -2.187107
H       1.971476   -2.364113   -0.551793
