16

N       0.060548    1.529312    0.290748
C       0.035735    0.128959    0.096488
C      -1.099908   -0.644363   -0.086772
C      -2.548787   -0.273948   -0.134065
C      -3.147189   -0.692465   -1.469969
O      -3.969505   -1.561823   -1.599903
N      -0.648483   -1.918224   -0.278238
N       0.687842   -2.024680   -0.246465
C       1.110514   -0.784032   -0.011753
H       1.005607    1.889238    0.237549
H      -0.318991    1.799710    1.191774
H      -3.135067   -0.735525    0.668018
H      -2.617554    0.816107   -0.043380
H      -2.729660   -0.149227   -2.346007
H      -1.204258   -2.744082   -0.429622
H       2.169244   -0.580434    0.066713
