22

C      -0.406593    1.391422    0.030711
C      -0.008576   -0.062240    0.035929
N      -0.587275   -0.977660    1.047338
C       0.862710   -0.684598    1.058202
C       1.655999   -1.769168    0.367222
O       0.995357   -1.988743   -0.871316
C       0.265874   -0.812965   -1.278497
C      -1.004958   -1.303063   -1.968484
C       1.142804    0.017090   -2.227313
H       0.324614    2.013726   -0.493508
H      -1.377084    1.533867   -0.458859
H      -0.492327    1.770519    1.054370
H      -1.041354   -0.419495    1.767844
H       1.298004   -0.120041    1.876848
H       2.698751   -1.440820    0.225026
H       1.663120   -2.719585    0.911909
H      -1.608290   -1.874877   -1.261221
H      -1.594810   -0.460889   -2.345753
H      -0.748741   -1.945441   -2.815788
H       1.468824   -0.614009   -3.058456
H       0.599323    0.872460   -2.640423
H       2.035715    0.393457   -1.717122
