20

C       0.895728   -1.483914    0.405837
C      -0.012202   -0.806279   -0.622456
O       0.037734   -1.478234   -1.879420
C      -1.475368   -0.616009   -0.206775
C      -2.236185    0.349747   -1.108245
C      -1.842936    1.789290   -0.839180
O      -1.530063    2.587522   -1.685343
C      -2.212560   -1.745145    0.426287
N      -1.881103   -0.542541    1.208094
H       1.882683   -1.621175   -0.042301
H       1.021368   -0.875808    1.307557
H       0.526085   -2.472658    0.700755
H       0.406500    0.184641   -0.838898
H      -0.406464   -2.327064   -1.771017
H      -2.065486    0.117815   -2.161900
H      -3.308975    0.266015   -0.892858
H      -1.869085    2.067811    0.237790
H      -3.269489   -1.882037    0.214003
H      -1.678887   -2.665731    0.647545
H      -1.095428   -0.738450    1.821948
