21

C      -0.133915    1.529207    0.064023
C      -0.000342    0.005752   -0.008066
C       0.734128   -0.590710    1.189216
O       0.007289   -0.283079    2.395536
C       0.415041   -1.213429    3.404683
C       0.688645   -2.513806    2.669894
C      -0.343587   -2.892332    1.639287
O      -1.645930   -2.387612    1.638867
C       0.871603   -2.105450    1.209781
H       0.849531    2.010249    0.114162
H      -0.651608    1.919823   -0.817071
H      -0.696246    1.829278    0.952134
H      -0.984772   -0.467067   -0.089842
H       0.556184   -0.279632   -0.909501
H       1.739607   -0.139372    1.256220
H       1.320715   -0.860369    3.920579
H      -0.399377   -1.271646    4.134187
H       1.301219   -3.266399    3.153404
H      -0.358577   -3.935159    1.339380
H      -1.590052   -1.462319    1.915654
H       1.619468   -2.561017    0.570120
