19

C      -0.089696    1.492939   -0.061034
C       0.201418    0.007695   -0.049001
O       1.405564   -0.356340   -0.798153
C       1.886577   -1.124018    0.307843
C       2.141801   -0.248743    1.503474
C       0.734740   -0.681423    1.211419
C       2.463350   -2.477886    0.114497
C       2.536480   -2.973300   -1.313103
O       2.838969   -3.128359    1.067894
H       0.722056    2.066444    0.393469
H      -0.222124    1.841581   -1.089992
H      -1.013586    1.698189    0.489965
H      -0.646991   -0.551951   -0.462834
H       2.606109   -0.764987    2.336084
H       2.468186    0.771459    1.327601
H       0.155976   -1.290782    1.892079
H       3.127914   -2.280705   -1.921907
H       2.980395   -3.968914   -1.332163
H       1.536455   -2.992112   -1.758616
