20

C       0.003580    1.588567    0.011519
C       0.049091    0.055446    0.002221
C       0.724388   -0.565865   -1.231887
C       2.189271   -0.332130   -1.511789
C       1.755995   -1.573781   -0.769749
C       1.758194   -1.582892    0.749636
C       2.193598   -0.350212    1.505268
C       0.727914   -0.580648    1.226828
H       1.010313    2.017958    0.012667
H      -0.520239    1.971259   -0.870665
H      -0.517716    1.960588    0.899742
H      -0.987600   -0.306805    0.001522
H       0.087343   -0.769264   -2.086835
H       2.512680   -0.460732   -2.539860
H       2.728964    0.448656   -0.989557
H       1.871233   -2.530866   -1.265819
H       1.874903   -2.545847    1.233862
H       2.519998   -0.491136    2.530776
H       2.731744    0.436828    0.990888
H       0.093321   -0.794301    2.081098
