12

O       0.023500    1.386030   -0.065219
C      -0.082105    0.051979    0.042655
C      -1.200544   -0.646116   -0.159624
N      -1.157128   -2.038956   -0.009733
C      -0.050195   -2.761961    0.331947
O      -0.027902   -3.965755    0.457992
C       1.213272   -1.922171    0.555298
O       2.269592   -2.375427    0.858316
O       1.093769   -0.546723    0.388703
H       0.936073    1.629195    0.133344
H      -2.136534   -0.188276   -0.433138
H      -1.996193   -2.580097   -0.159687
