20

C      -0.092381    1.508636   -0.020888
C      -0.116295    0.000721   -0.200660
O      -1.394133   -0.478650    0.186611
C      -1.524179   -1.869945    0.106173
C      -2.827739   -2.466073    0.573905
C      -3.782347   -2.479335   -0.573067
C      -3.111692   -1.849907   -1.781216
C      -1.854600   -2.556775   -1.244403
N      -2.751522   -3.568826   -0.458967
H       0.883848    1.911665   -0.306484
H      -0.858460    1.981423   -0.641986
H      -0.287094    1.772771    1.022354
H       0.092010   -0.265138   -1.249521
H       0.664785   -0.476375    0.414300
H      -0.675466   -2.376961    0.588616
H      -3.138011   -2.670420    1.591820
H      -4.834995   -2.691626   -0.423555
H      -3.461898   -2.310276   -2.708051
H      -3.090692   -0.760758   -1.874150
H      -1.075859   -2.934327   -1.903636
