19

C      -0.216718    1.630987   -0.006637
N      -0.025260    0.187528   -0.060095
C       1.297845   -0.318232   -0.390122
C       0.736444   -0.505107    0.980334
C       1.345871    0.201364    2.157058
C       0.561872    0.199921    3.490887
C       1.723097   -0.628752    3.995557
N       2.030302   -1.147895    5.093417
O       2.389871   -0.627377    2.785002
H       0.677914    2.207973    0.274872
H      -0.530561    1.971605   -0.998211
H      -1.018860    1.867323    0.699797
H       1.337933   -1.150275   -1.087786
H       2.109350    0.402556   -0.493952
H       0.323522   -1.479724    1.240385
H       1.772459    1.168885    1.885273
H       0.436074    1.166433    3.980682
H      -0.394929   -0.325574    3.468226
H       2.924064   -1.639080    5.034924
