17

C       0.012897    1.441189   -0.050192
N      -0.082271    0.006861    0.112094
C       0.599841   -0.670706    1.086157
N       1.163883    0.038864    2.073010
C       1.781389   -0.657321    3.024745
C       1.866533   -2.049696    3.027387
N       2.583901   -2.767753    3.999102
C       1.248077   -2.673479    1.937083
N       0.621111   -2.012230    0.974565
H       1.021365    1.776263   -0.332483
H      -0.690399    1.752697   -0.826138
H      -0.250636    1.942470    0.883985
H      -0.315924   -0.554812   -0.689711
H       2.238664   -0.078996    3.827954
H       2.638260   -2.291082    4.889723
H       2.238206   -3.708172    4.138845
H       1.268794   -3.759931    1.846412
