19

C      -0.561821    1.199454   -0.023320
N      -0.103254   -0.148358    0.272077
C       1.164093   -0.684234   -0.147347
C       2.327553    0.320078   -0.003738
C       2.033388    0.390308    1.529411
C       1.860017    1.735606    2.256342
C       3.109496    2.493724    2.310493
N       4.108194    3.074875    2.336612
C       0.810778   -0.531762    1.320253
H       0.229001    1.950335   -0.154247
H      -1.141230    1.168508   -0.951617
H      -1.229348    1.533248    0.777105
H       1.178463   -1.578488   -0.761014
H       3.303558   -0.116040   -0.220943
H       2.233906    1.249561   -0.572449
H       2.804386   -0.178353    2.057644
H       1.100330    2.358375    1.777122
H       1.516855    1.557843    3.282702
H       0.477232   -1.276436    2.036418
