15

C      -0.076243    1.561254   -0.080357
C       0.002774    0.055833   -0.004904
O      -1.170962   -0.612639   -0.388752
C       1.300435   -0.662082   -0.249567
C       0.692195   -0.633248    1.157084
C       1.318357    0.107110    2.210729
C       1.845069    0.725007    3.098950
H       0.823918    2.026060    0.327762
H      -0.189036    1.888574   -1.121074
H      -0.939367    1.921946    0.487182
H      -1.292095   -0.473207   -1.335002
H       1.257214   -1.611396   -0.770932
H       2.197950   -0.076183   -0.412138
H       0.204195   -1.554633    1.459761
H       2.306108    1.268154    3.885880
