20

C      -0.056883    1.449776   -0.131553
N       0.028882    0.012181    0.004502
C       0.588590   -0.617894    1.072186
C       1.172572    0.039188    2.113808
C       1.838313   -0.643136    3.212454
O       2.367988   -0.042239    4.134742
C       1.875248   -2.172736    3.154257
C       0.678945   -2.758647    2.400510
C       0.559717   -2.128842    1.009298
H       0.940903    1.903024   -0.114737
H      -0.527506    1.688959   -1.086892
H      -0.648478    1.905095    0.673943
H      -0.496355   -0.549377   -0.642805
H       1.185429    1.121866    2.160868
H       2.809455   -2.461133    2.650944
H       1.941333   -2.546438    4.179173
H       0.768059   -3.846352    2.310578
H      -0.240744   -2.558806    2.963353
H      -0.363576   -2.457492    0.515051
H       1.387908   -2.469318    0.371517
