12

O       0.069149    1.365804   -0.073513
C       0.053613    0.009327   -0.042942
C       0.024045   -0.734202   -1.216624
N       0.007893   -2.072126   -1.236658
C       0.020825   -2.700648   -0.086773
F       0.004380   -4.030845   -0.131730
C       0.050227   -2.088439    1.165359
C       0.066332   -0.709859    1.155361
F       0.094786   -0.009498    2.296760
H       0.088592    1.689795    0.835091
H       0.013208   -0.217761   -2.171712
H       0.059891   -2.653356    2.087709
