19

C       0.405182    1.550312    0.037640
C       0.118491    0.056323    0.043105
C       0.931589   -0.870260   -0.917867
C       1.352466   -1.764676    0.294131
C       2.604450   -1.225577    0.965943
O       3.779853   -1.402777    0.928958
O       1.922577   -0.310482    1.738898
C       0.612703   -0.787898    1.251628
C      -0.301689   -1.148430    2.388393
H       1.465567    1.747745    0.215608
H       0.131406    1.990643   -0.926829
H      -0.167369    2.067866    0.814795
H      -0.954601   -0.119155   -0.090137
H       0.318726   -1.398603   -1.649661
H       1.765193   -0.396995   -1.441978
H       1.210414   -2.841934    0.241327
H      -0.570022   -0.254987    2.962550
H      -1.223989   -1.598608    2.008988
H       0.179905   -1.857244    3.068287
