25

C      -0.143144    1.566592    0.052259
C      -0.014293    0.042166   -0.009287
C       0.749816   -0.493594   -1.234687
C       2.173126    0.066216   -1.324523
C       0.736117   -2.044207   -1.277669
C       0.380265   -2.382144   -2.735716
C      -0.254102   -3.754030   -2.947812
C      -0.522780   -1.193513   -3.080426
O       0.057034   -0.072869   -2.436152
H       0.825392    2.055047    0.197275
H      -0.579416    1.947634   -0.875081
H      -0.788969    1.866576    0.883309
H       0.475683   -0.334999    0.898285
H      -1.017094   -0.402885   -0.024412
H       2.723317   -0.107986   -0.393566
H       2.720225   -0.411779   -2.142674
H       2.154720    1.141006   -1.520593
H       1.690406   -2.472909   -0.960217
H      -0.039237   -2.436673   -0.608763
H       1.286747   -2.305503   -3.349581
H      -1.165056   -3.862474   -2.347789
H      -0.524246   -3.910905   -3.997742
H       0.431263   -4.557732   -2.660112
H      -0.579891   -0.978726   -4.152667
H      -1.549747   -1.378042   -2.717936
