27

C      -0.049423    1.590522   -0.153699
C       0.019744    0.070568    0.022072
C      -1.364784   -0.589108    0.037576
C      -1.360111   -2.126552    0.129188
C      -0.776683   -2.635010    1.456054
C      -2.767216   -2.684470   -0.086638
C      -3.462355   -2.495063   -1.467225
C      -4.037341   -3.930341   -1.334658
C      -2.961327   -4.220404   -0.254730
H       0.949262    2.038583   -0.165000
H      -0.545854    1.858755   -1.093113
H      -0.614082    2.057675    0.661080
H       0.617386   -0.364690   -0.790310
H       0.556162   -0.159208    0.950374
H      -1.950527   -0.182903    0.875495
H      -1.900096   -0.292978   -0.874499
H      -0.728722   -2.508905   -0.688652
H      -0.807663   -3.728091    1.506419
H       0.265033   -2.330061    1.590198
H      -1.349966   -2.247011    2.307068
H      -3.427776   -2.317318    0.710347
H      -4.169193   -1.669275   -1.579975
H      -2.723601   -2.430878   -2.273800
H      -5.045476   -3.924853   -0.909983
H      -4.043652   -4.559666   -2.227834
H      -2.069163   -4.684417   -0.689877
H      -3.259845   -4.801209    0.621565
