14

C      -0.002560    1.501532   -0.059241
N       1.357420    2.022142    0.116671
C       2.346871    1.255116    0.272345
O       2.401715   -0.114337    0.313059
C       1.173461   -0.705646    0.157155
C       0.016207    0.009329   -0.020526
N      -0.960130   -0.924939   -0.133205
N      -0.497352   -2.189987   -0.038462
C       0.817563   -2.065380    0.140764
H      -0.638348    1.932632    0.727242
H      -0.397748    1.890625   -1.008485
H       3.348228    1.656707    0.401431
H      -1.945716   -0.781290   -0.273275
H       1.442406   -2.937939    0.248485
