15

N      -0.106024    1.338982    0.207094
C      -0.054604    0.103429   -0.030040
C      -1.260307   -0.788462   -0.030535
C      -1.171518   -1.842398   -1.108034
C      -0.657111   -1.532512   -2.460887
N       0.160490   -2.326997   -1.504976
C       1.312074   -1.692285   -0.988661
O       2.416050   -2.100807   -1.166111
O       1.157623   -0.535006   -0.238287
H       0.831059    1.747217    0.193895
H      -1.313054   -1.288245    0.945521
H      -2.154172   -0.170327   -0.131646
H      -1.887198   -2.655153   -1.015644
H      -0.995457   -2.091523   -3.326754
H      -0.339903   -0.512901   -2.665143
