16

C      -0.078589    1.327702   -0.011005
N      -0.002720   -0.119496    0.068806
C       0.585634   -0.657767    1.029063
O       1.221489   -0.059698    2.099077
C       1.696461   -1.082029    2.899133
C       1.392374   -2.253545    2.350448
C       1.608292   -3.676740    2.718787
O       0.396359   -4.365138    2.981555
O       0.696576   -2.016727    1.172134
H       0.430165    1.668411   -0.920077
H      -1.128205    1.627957   -0.102445
H       0.359102    1.851168    0.847433
H       2.217678   -0.804153    3.797999
H       2.185307   -4.175441    1.924465
H       2.201513   -3.718263    3.636283
H      -0.141765   -4.319783    2.183565
