13

N       0.016950    1.446806    0.170303
C       0.025090    0.049230    0.045986
C      -1.062680   -0.815882    0.009628
N      -0.648201   -2.144353   -0.024253
C       0.715547   -2.117330   -0.017213
C       1.153351   -0.811021    0.029692
O       2.484536   -0.814114    0.029238
N       2.848788   -2.256631   -0.022886
N       1.787446   -2.941242   -0.046988
H       0.797894    1.879544   -0.306352
H      -0.844360    1.864378   -0.157551
H      -2.114398   -0.575899    0.014744
H      -1.247820   -2.948125   -0.052505
