15

C       0.072857    1.424817    0.255583
N      -0.058814    0.062276   -0.230662
C      -1.229526   -0.594214   -0.251813
N      -2.319317   -0.037782    0.167584
C      -3.479594   -0.750510    0.123311
C      -4.745475   -0.384009    0.506221
N      -5.567929   -1.446891    0.264601
N      -4.936840   -2.417342   -0.223267
O      -3.543190   -2.008158   -0.338506
H       1.116512    1.729966    0.168489
H      -0.554524    2.105977   -0.327243
H      -0.239591    1.494099    1.301930
H       0.757090   -0.416496   -0.568817
H      -1.176503   -1.612300   -0.644817
H      -5.095836    0.543119    0.923461
