23

C      -0.211987    1.536478   -0.122353
C      -0.058414    0.012898    0.016227
C      -1.423357   -0.667191    0.172921
C       0.766679   -0.538351   -1.130101
C       0.223036   -0.849584   -2.505400
C       0.819484   -1.952532   -1.640454
C       2.290996   -2.274207   -1.838772
C       2.947668   -0.876432   -1.829269
O       2.085105   -0.023509   -1.082503
H       0.763590    2.016759   -0.226196
H      -0.808928    1.786315   -1.007046
H      -0.715579    1.958568    0.753505
H       0.526950   -0.185154    0.924605
H      -2.066528   -0.486618   -0.695432
H      -1.331095   -1.748787    0.310430
H      -1.942030   -0.264932    1.048597
H      -0.853496   -0.861198   -2.635174
H       0.767711   -0.505066   -3.378434
H       0.163356   -2.726242   -1.259861
H       2.648591   -2.883227   -1.001490
H       2.508158   -2.816668   -2.764218
H       3.932630   -0.859681   -1.353850
H       3.065499   -0.495824   -2.853645
