18

O      -0.082477    1.317418    0.473251
N       0.064079   -0.078276    0.347950
C      -1.010521   -0.609195   -0.056678
C      -2.396783   -0.120316   -0.438611
C      -2.734643   -1.588527   -0.760624
C      -4.057730   -2.278759   -0.559333
C      -3.513516   -2.037736   -1.950510
O      -4.059621   -1.024838   -2.742711
C      -1.330769   -2.068321   -0.332548
H       0.791751    1.585099    0.775839
H      -2.956283    0.330769    0.387373
H      -2.430065    0.563080   -1.291838
H      -4.066294   -3.294202   -0.174594
H      -4.893048   -1.660673   -0.244153
H      -3.137760   -2.901932   -2.500961
H      -4.928860   -1.311967   -3.041055
H      -0.729861   -2.539222   -1.117447
H      -1.310712   -2.709877    0.554759
