17

C       0.032738    1.536963    0.063494
O       1.178972    0.657075   -0.013268
C      -0.118152    0.092654   -0.012277
C      -0.560352   -0.981374    0.986028
O      -1.982698   -0.978112    0.780160
C      -1.969531   -1.435672   -0.589458
C      -1.385267   -2.858519   -0.447680
C      -0.115099   -2.077648   -0.078108
C      -0.549171   -0.916056   -1.062460
H      -0.094665    2.048061    1.016440
H      -0.135028    2.150426   -0.820351
H      -0.297653   -0.988376    2.041660
H      -2.909095   -1.200044   -1.085469
H      -1.859278   -3.516697    0.284189
H      -1.266140   -3.362637   -1.410435
H       0.891385   -2.484219   -0.023140
H      -0.301421   -0.870993   -2.119843
