14

N      -0.082850    1.192775   -0.276126
C      -0.047146   -0.031175   -0.006693
O       0.992909   -0.841183    0.420344
C       0.121515   -2.019427    0.458088
C      -1.035886   -1.144717   -0.011599
C      -2.475263   -1.092602    0.415755
C      -2.124927   -1.397408   -1.015242
H       0.827483    1.635550   -0.147614
H       0.472664   -2.786109   -0.237998
H       0.053945   -2.421657    1.472627
H      -2.841597   -1.902276    1.038108
H      -2.877607   -0.113457    0.650436
H      -2.287293   -0.627064   -1.760822
H      -2.252241   -2.415046   -1.369220
