20

C      -0.085385    1.565767    0.086810
C       0.016938    0.030140    0.050204
C       0.685135   -0.497130    1.332955
C      -1.378776   -0.587979   -0.110131
N       0.796173   -0.393604   -1.133086
C       2.091120   -0.065019   -1.389220
O       2.794751    0.629921   -0.674347
C       2.588465   -0.635433   -2.640050
C       3.029951   -1.088755   -3.662577
H       0.907371    2.012069    0.158554
H      -0.573607    1.941498   -0.817904
H      -0.677192    1.880782    0.951999
H       0.100179   -0.199730    2.208970
H       0.745184   -1.589895    1.315453
H       1.693950   -0.093742    1.430349
H      -1.867080   -0.231058   -1.023663
H      -1.325323   -1.681666   -0.147347
H      -2.011304   -0.312138    0.737579
H       0.335414   -0.977595   -1.813021
H       3.434360   -1.482218   -4.563141
