21

C      -0.042790    1.445881    0.054455
O       0.007453    0.047813   -0.121665
C      -1.248589   -0.587429   -0.044964
C      -1.102841   -2.051001   -0.490778
C      -2.344482   -2.757656    0.072967
C      -2.264782   -4.271966    0.250307
C      -2.629116   -2.003739    1.381889
O      -3.345935   -2.391950    2.267990
C      -1.843446   -0.688596    1.374223
H       0.972027    1.825552   -0.085925
H      -0.705759    1.924334   -0.683608
H      -0.387317    1.728078    1.060289
H      -1.964606   -0.068368   -0.705474
H      -0.994658   -2.145933   -1.573582
H      -0.193398   -2.456011   -0.029580
H      -3.205475   -2.522583   -0.574075
H      -1.389093   -4.548555    0.847047
H      -3.153867   -4.636236    0.771284
H      -2.190169   -4.780992   -0.714991
H      -1.023286   -0.785022    2.098359
H      -2.468855    0.147848    1.693825
