14

C      -0.149882    1.345834   -0.237277
C       1.257505    0.903358   -0.032309
N       0.164462   -0.048186    0.112883
C      -0.122015   -0.506421    1.383279
N       0.682278   -0.685824    2.386496
C      -0.128832   -1.252578    3.366636
C      -1.387376   -1.374785    2.894069
O      -1.399549   -0.897053    1.604541
H      -0.600020    1.965267    0.533470
H      -0.546376    1.484780   -1.237596
H       1.901507    0.727696   -0.887940
H       1.760328    1.213656    0.878301
H       0.260050   -1.524389    4.335086
H      -2.323666   -1.738838    3.278823
