21

C      -0.019266    1.541492    0.010677
C      -0.036667   -0.000638    0.002562
C       0.692567   -0.540452   -1.257952
C       0.889217   -2.055808   -1.188823
O       1.595372   -2.438953   -0.020362
C       0.903506   -2.068330    1.160618
C       0.707822   -0.553811    1.248285
C      -1.430641   -0.460636    0.008586
C      -2.578685   -0.819997    0.013693
H       1.013179    1.906174    0.006334
H      -0.530980    1.941334   -0.869647
H      -0.520196    1.931895    0.901379
H       0.133302   -0.273500   -2.161045
H       1.675007   -0.056987   -1.317278
H      -0.089187   -2.561783   -1.225893
H       1.485241   -2.407323   -2.036026
H      -0.074411   -2.574725    1.204189
H       1.509765   -2.428819    1.996715
H       1.690948   -0.070951    1.300803
H       0.159609   -0.296536    2.160913
H      -3.591866   -1.138273    0.018148
