23

C      -0.647335    1.256030   -0.028954
C       0.144669   -0.038438   -0.126438
C       1.562383   -0.022451   -0.756807
C       1.987653   -1.103836    0.265671
C       0.753141   -0.717932    1.154129
C       1.083701    0.212646    2.351657
C       1.002661   -0.683225    3.614525
C       0.150894   -1.839553    3.147312
C       0.014157   -1.845187    1.822048
H      -0.058664    2.060162    0.425277
H      -0.952193    1.596504   -1.025028
H      -1.557043    1.127517    0.568820
H      -0.464774   -0.791519   -0.642219
H       1.650837   -0.260011   -1.820010
H       2.068368    0.931425   -0.573732
H       1.886611   -2.114324   -0.141954
H       2.974136   -1.015496    0.729238
H       2.049007    0.716234    2.246984
H       0.319458    0.992544    2.427351
H       1.993188   -1.038091    3.932704
H       0.578118   -0.153930    4.475251
H      -0.251720   -2.585206    3.824583
H      -0.516110   -2.598511    1.247092
