20

C      -0.268607    1.534704    0.334736
N       0.064841    0.155878   -0.005171
C      -1.105517   -0.692164   -0.279254
C      -1.484654   -1.356963    1.068494
O      -2.207931   -2.562784    0.960018
C      -0.118179   -1.590384    1.714040
O       0.618137   -2.684714    1.130731
C       1.590009   -1.790836    0.546609
C       0.818057   -0.545052    1.033224
H       0.652817    2.096560    0.516019
H      -0.778974    2.003670   -0.512030
H      -0.914013    1.649750    1.224534
H      -1.913757   -0.102569   -0.720347
H      -0.843658   -1.490450   -0.984084
H      -2.020681   -0.627604    1.699235
H      -3.066809   -2.363021    0.575508
H      -0.153695   -1.663455    2.805317
H       2.583982   -1.927053    0.991318
H       1.659194   -1.893440   -0.542345
H       1.377810    0.153226    1.655424
