23

C      -0.722709    0.763618   -0.021839
O      -0.126050   -0.496637   -0.246619
C       0.902976   -0.494078   -1.249422
C       1.680818   -1.822399   -1.102413
C       1.214747   -2.746201   -2.264705
C       1.011279   -4.207003   -1.870805
C      -0.053787   -2.046843   -2.819563
O      -1.235149   -2.383171   -2.106360
C       0.296950   -0.558168   -2.665401
H       0.027172    1.505756    0.290237
H      -1.243191    1.149756   -0.909342
H      -1.450978    0.636000    0.782592
H       1.536079    0.389597   -1.093673
H       2.760211   -1.652120   -1.133103
H       1.449714   -2.249960   -0.122636
H       1.968064   -2.699367   -3.062394
H       0.211868   -4.295878   -1.130466
H       0.728527   -4.815532   -2.736320
H       1.926966   -4.632262   -1.446641
H      -0.243977   -2.331539   -3.859215
H      -1.179938   -1.940455   -1.247574
H      -0.568186    0.096110   -2.801193
H       1.056679   -0.270484   -3.401888
