18

C       0.069235    1.561741    0.028446
C       0.037670    0.033183    0.088583
C      -1.377434   -0.543945   -0.022896
N      -2.007405   -0.339443   -1.322621
C      -2.516693   -1.493520   -1.865664
O      -3.177016   -1.628627   -2.866879
N      -2.095801   -2.523395   -1.007755
C      -1.400181   -2.070260    0.098355
N      -0.857294   -2.697904    1.058177
H       1.091218    1.934810    0.139802
H      -0.311446    1.935687   -0.928452
H      -0.535147    2.004692    0.828294
H       0.650070   -0.391099   -0.715155
H       0.456171   -0.326185    1.033755
H      -1.998495   -0.125901    0.782944
H      -2.380323    0.543855   -1.625033
H      -2.281859   -3.488057   -1.227061
H      -0.970341   -3.708408    0.969227
