21

C      -0.203220    1.469990    0.042214
C       0.057117   -0.019015    0.025071
C      -0.710199   -0.913362    0.977878
C       0.775013   -0.734348    1.162200
C       1.682697   -1.816828    0.590521
C       1.362477   -1.881149   -0.907398
O       0.273773   -2.771118   -1.274090
C      -0.423049   -1.692495   -1.940684
C       0.508324   -0.647618   -1.294777
H       0.666042    2.032441   -0.319357
H      -1.056103    1.735426   -0.594241
H      -0.428851    1.820493    1.054346
H      -1.366605   -0.417408    1.686114
H      -1.065685   -1.879572    0.637026
H       1.122523   -0.176439    2.026031
H       2.734445   -1.538772    0.726320
H       1.540823   -2.798390    1.056134
H       2.245603   -2.089443   -1.524078
H      -0.325782   -1.768429   -3.031882
H      -1.484321   -1.655445   -1.672121
H       0.948276    0.095443   -1.963260
