17

O      -0.236360    0.542646    1.134715
C      -0.139800    1.320485    0.220595
C      -1.293037    1.745013   -0.682341
N      -1.465734    3.210425   -0.608453
C      -0.222290    3.931416   -0.381627
C       0.345644    3.915079    1.093387
C       1.554325    3.112914    0.590889
C       1.067942    3.207066   -0.829940
N       1.086958    1.932948   -0.127715
H      -1.043537    1.401732   -1.700157
H      -2.202298    1.234704   -0.358137
H      -1.922428    3.543730   -1.448662
H      -0.326083    4.948454   -0.761773
H       0.614552    4.919596    1.428188
H      -0.275818    3.435352    1.853378
H       2.564942    3.118525    0.978547
H       1.618277    3.295614   -1.760021
