15

O      -0.035061   -0.004412    0.192411
C       0.011628    1.173649   -0.010849
O      -1.135443    1.912435   -0.300683
C      -0.753399    3.245212   -0.580402
C      -1.375235    4.436630    0.181824
C      -0.179045    5.374256    0.250544
C       0.991062    4.742794    0.028275
C       0.702225    3.339033   -0.206801
C       1.164514    2.109528    0.047453
H      -0.883708    3.419113   -1.657798
H      -2.248884    4.874717   -0.307683
H      -1.677520    4.126764    1.190289
H      -0.278001    6.424003    0.502431
H       1.976835    5.182712    0.099049
H       2.140971    1.784904    0.373344
