21

C      -0.009950    1.578227   -0.005853
C       0.018510    0.048108   -0.005361
C       0.700769   -0.521626   -1.257029
C       0.609373   -2.051395   -1.303475
C       0.953516   -2.689783    0.031871
C       1.005866   -1.976192    1.168600
C       0.710874   -0.505045    1.251502
C       1.214240   -4.089578    0.022513
C       1.425260   -5.274611   -0.042697
H       1.005970    1.989153   -0.044959
H      -0.558586    1.964732   -0.871186
H      -0.491035    1.969015    0.897415
H      -1.019167   -0.316055    0.001374
H       0.253561   -0.095912   -2.162548
H       1.756573   -0.217425   -1.256000
H      -0.402486   -2.364723   -1.596154
H       1.276324   -2.452946   -2.074458
H       1.276226   -2.481329    2.091903
H       1.651038    0.042876    1.427477
H       0.095456   -0.305978    2.139114
H       1.613477   -6.318667   -0.080696
