20

C      -0.016297    1.451726    0.021507
C      -0.003093   -0.053525    0.007114
C       0.619443   -0.985457   -1.082354
C       0.015792   -1.942124   -0.015042
C       0.032134   -3.442760   -0.035009
O      -0.630861   -3.906408    1.134127
C       0.633179   -1.007423    1.065784
C      -1.233423   -1.013651    0.004532
H       1.002223    1.855801    0.018400
H      -0.537863    1.850650   -0.855703
H      -0.524517    1.831850    0.914706
H       0.138138   -0.979016   -2.065760
H       1.710617   -0.973752   -1.171700
H      -0.468531   -3.802924   -0.949236
H       1.075620   -3.797803   -0.071476
H      -0.623455   -4.867832    1.120515
H       1.725671   -0.998197    1.138398
H       0.165473   -1.030238    2.053459
H      -1.842843   -1.036967    0.911633
H      -1.854583   -1.010105   -0.897162
