22

C       0.149921    1.519969    0.257531
C      -0.085477    0.035481   -0.033583
C       0.790580   -0.496248   -1.172777
C       0.557258   -1.983270   -1.464723
C       1.417847   -2.528067   -2.600536
C       2.844693   -2.971533   -2.306139
C       1.798943   -4.001378   -2.612108
C       1.185408   -1.917759   -3.887243
N       0.986153   -1.420320   -4.913100
H       1.189881    1.706661    0.547617
H      -0.061446    2.133777   -0.624818
H      -0.491119    1.873427    1.070971
H       0.103009   -0.551506    0.875486
H      -1.142124   -0.126105   -0.284521
H       0.598265    0.085004   -2.083596
H       1.849293   -0.337546   -0.927369
H       0.771476   -2.576470   -0.567102
H      -0.499917   -2.152963   -1.704294
H       3.602686   -2.770958   -3.053463
H       3.177976   -2.859209   -1.280188
H       1.408623   -4.604410   -1.799770
H       1.839406   -4.503940   -3.570961
