15

C       0.122178    1.244682    0.291509
C       1.459347    1.869167   -0.117244
C       2.246575    0.649752   -0.631705
N       3.005071   -0.027997    0.431967
C       2.472550   -1.172594    0.558596
O       1.430697   -1.529200   -0.227775
C       1.120426   -0.352957   -1.026665
O      -0.100774    0.202122   -0.670888
H       0.163778    0.824517    1.305109
H      -0.727214    1.927823    0.230891
H       1.308468    2.590119   -0.926104
H       1.978104    2.363269    0.705322
H       2.918903    0.903856   -1.454089
H       2.787406   -1.935426    1.262817
H       1.060538   -0.688140   -2.062460
