20

C      -0.132764    1.499771    0.011843
C       0.076791    0.014130    0.035483
C       1.016983   -0.782375   -0.902295
C       0.682495   -1.932292    0.119400
C       1.451806   -3.221428    0.233775
C       0.679634   -0.796306    1.209178
C      -0.810486   -2.005573   -0.119590
N      -1.540875   -3.024486   -0.242957
O      -1.199913   -0.686894   -0.173110
H       0.818176    2.017608    0.165816
H      -0.548347    1.815699   -0.949760
H      -0.825848    1.804507    0.801762
H       0.703491   -0.905114   -1.941818
H       2.059575   -0.462734   -0.839803
H       2.515738   -3.032138    0.405988
H       1.067896   -3.826835    1.060313
H       1.347402   -3.814439   -0.679744
H       1.689145   -0.478066    1.478777
H       0.058087   -0.931728    2.097599
H      -2.514742   -2.755715   -0.396726
