17

C       0.038203    1.505899    0.059943
C       0.209766    0.026083   -0.021623
O      -0.768879   -0.825599    0.593569
C       0.626253   -1.011959    0.931260
C       1.241922   -1.887298   -0.154408
C       0.726457   -0.847117   -1.223038
O      -0.271336   -1.253738   -2.115298
C       1.821505   -0.182561   -2.026907
O       2.926627    0.046461   -1.604144
H       0.972889    2.014829   -0.193407
H      -0.737039    1.844359   -0.636119
H      -0.258424    1.796322    1.071157
H       0.885458   -0.928060    1.979713
H       2.333308   -1.903316   -0.119360
H       0.838088   -2.896941   -0.255662
H      -1.030344   -1.496666   -1.567970
H       1.504610    0.104615   -3.052521
