19

C       0.040198    1.516523   -0.038762
C      -0.019443    0.025745    0.020987
C      -1.080169   -0.789309    0.129401
C      -0.715550   -2.245657    0.091215
C      -1.465466   -3.229316    0.958066
C      -0.127637   -2.662965   -1.240441
C       0.781761   -2.251993   -0.084309
C       1.223369   -0.808442   -0.064895
O       2.359503   -0.391538   -0.092164
H       0.690422    1.906760    0.751489
H       0.477228    1.851104   -0.986573
H      -0.950069    1.966925    0.065767
H      -2.115054   -0.466147    0.195103
H      -2.526896   -3.264523    0.686371
H      -1.060343   -4.239146    0.844995
H      -1.399776   -2.956233    2.016619
H      -0.131650   -3.720460   -1.488603
H      -0.227182   -1.994639   -2.088948
H       1.427461   -3.002631    0.353775
