21

C       0.030182    1.598202    0.302422
O       0.613000    0.358031   -0.034404
C       0.777808   -0.493321    1.057958
C      -0.436869   -1.299482    1.574480
O       0.279203   -2.546587    1.389394
C       1.378838   -1.873338    0.713057
C       1.435912   -2.283186   -0.767993
C       2.252576   -3.565655   -0.956911
O       0.124014   -2.432719   -1.283105
H       0.629580    2.135250    1.054356
H      -0.012437    2.193996   -0.611681
H      -0.991021    1.480296    0.694579
H       1.319037    0.018929    1.867460
H      -0.732321   -1.158167    2.619326
H      -1.312367   -1.227461    0.918706
H       2.332853   -2.089878    1.207527
H       1.892822   -1.461818   -1.330304
H       1.843813   -4.376779   -0.343246
H       2.216728   -3.876898   -2.003904
H       3.299940   -3.418068   -0.671539
H      -0.341993   -2.968285   -0.626682
