9

O      -0.092696   -0.035933    0.002745
C      -0.029353    1.170183    0.008242
C       1.216135    1.902699    0.000245
C       2.254281    2.534337   -0.006244
C       3.406535    3.235066   -0.013404
C       4.445189    3.866965   -0.019657
C       5.605008    4.575513   -0.026706
N       6.597084    5.182832   -0.032772
H      -0.932285    1.810389    0.019960
