17

C       0.951965    0.829337    0.365797
C      -0.427032    0.482621   -0.147031
O      -1.444857    0.854631    0.386947
C      -0.478425   -0.366704   -1.430590
N       0.419234   -1.540882   -1.343362
C      -0.278178   -2.558860   -1.657402
N      -1.636889   -2.386669   -2.047279
C      -2.456202   -1.930499   -0.882544
C      -1.847321   -0.937644   -1.791661
H       1.501002   -0.090624    0.587163
H       1.524850    1.350980   -0.409356
H       0.870780    1.456232    1.254303
H      -0.109458    0.284635   -2.237557
H       0.125610   -3.567401   -1.661588
H      -3.513976   -2.156219   -0.964745
H      -2.027717   -2.059454    0.106444
H      -2.472101   -0.413194   -2.504756
