13

C       0.179683    1.487392    0.126715
C      -0.018160    0.024328    0.019222
C      -1.096700   -0.785519   -0.210001
O      -2.367821   -0.399946   -0.413177
N      -0.718676   -2.100567   -0.209594
C       0.566122   -2.058574    0.017252
O       1.059951   -0.810789    0.166128
C       1.463122   -3.149032    0.119672
N       2.197702   -4.039638    0.203628
H       0.878318    1.857561   -0.631776
H      -0.780921    1.986525   -0.016704
H       0.573314    1.771066    1.109073
H      -2.894061   -1.198021   -0.544960
