16

C      -0.041280    1.553142    0.003083
C       0.020318    0.056375    0.045201
C      -0.859776   -0.829103    0.906580
C       0.630581   -0.938468    1.003834
O       1.141524   -1.773518   -0.040884
C       0.662201   -0.824726   -1.043888
C      -0.179622   -1.410795   -2.072317
C      -0.882850   -1.877389   -2.928431
H       0.915700    1.986357   -0.309051
H      -0.810923    1.897871   -0.697539
H      -0.287780    1.961486    0.988070
H      -1.346064   -0.303964    1.723770
H      -1.430000   -1.646264    0.474208
H       1.228177   -0.830804    1.901544
H       1.525889   -0.323005   -1.499464
H      -1.501610   -2.294535   -3.684294
