20

C       0.222840    1.557653   -0.105946
C       0.061159    0.053214    0.038661
O       0.647259   -0.576436   -1.111370
C       1.179886   -1.828851   -0.747372
C       0.618259   -3.078294   -1.378884
C       1.985311   -2.543493   -1.778347
C       1.485824   -1.765525    0.716538
N       2.241968   -0.545838    1.087905
C       0.771172   -0.577344    1.228065
H       1.283956    1.816735   -0.091278
H      -0.212006    1.897162   -1.049918
H      -0.285012    2.077933    0.712802
H      -1.007833   -0.211191    0.102103
H       0.565601   -3.990532   -0.792488
H      -0.192454   -2.941316   -2.085499
H       2.069096   -2.063902   -2.746982
H       2.871238   -3.081832   -1.459728
H       1.605961   -2.678358    1.289478
H       2.661487   -0.688151    2.004085
H       0.313760   -0.540682    2.211063
