17

C      -0.024331    1.454561   -0.018526
C      -0.010724   -0.001519   -0.006628
C      -0.004750   -1.206819    0.006517
C       0.032686   -2.647445    0.003117
C       1.214680   -3.260801   -0.733678
C      -0.495107   -3.369887    1.234525
C      -1.296705   -3.387713   -0.036591
H       0.836234    1.853738   -0.567159
H      -0.929212    1.844417   -0.498585
H       0.014395    1.865455    0.996817
H       2.161710   -2.939164   -0.288864
H       1.171660   -4.353750   -0.691221
H       1.217457   -2.960162   -1.786191
H       0.020304   -4.276978    1.532217
H      -0.853407   -2.762464    2.056907
H      -2.200822   -2.792429   -0.079727
H      -1.331672   -4.307043   -0.611650
