16

N       0.081449   -1.128332    0.081694
C      -0.006516    0.026069    0.024303
C      -0.059993    1.435480   -0.049051
C      -1.124991    2.249794   -0.023841
C      -0.548134    3.656554    0.023381
C       0.005584    3.863001    1.473845
C       1.249157    2.927805    1.443030
C       1.159213    2.374571   -0.014309
O       0.662371    3.505474   -0.726847
H      -2.168171    1.980230    0.062316
H      -1.158352    4.462292   -0.379995
H       0.294160    4.907062    1.611085
H      -0.722138    3.600866    2.244219
H       2.174737    3.493630    1.564996
H       1.225561    2.137336    2.195445
H       2.080902    2.001211   -0.455173
