17

O       0.099544    0.207447   -0.645365
C       0.170958    1.391009   -0.505895
O       1.017390    1.972688    0.363928
C       1.030719    3.405010    0.449081
C       2.414658    3.927797    0.114376
C       2.916456    3.825694   -1.374654
C       3.014742    5.355938   -1.392960
O       1.708338    5.867048   -1.097471
C       2.539818    5.459968   -0.004214
H      -0.440797    2.126547   -1.064703
H       0.291616    3.836061   -0.235731
H       0.750241    3.670450    1.474310
H       3.153290    3.511787    0.804450
H       3.880786    3.320356   -1.452844
H       2.222710    3.399859   -2.103856
H       3.678155    5.997800   -1.959969
H       2.740116    6.193078    0.768551
