15

C      -0.001631    1.442522   -0.105026
C      -0.024113   -0.048245    0.088748
N      -0.064677   -0.725880    1.155771
O       0.009037   -0.665597   -1.128008
C       0.016311   -2.100776   -1.107088
C      -0.624431   -2.591149   -2.321413
C      -1.166430   -3.021049   -3.301078
C       1.404572   -2.594545   -0.992784
N       2.486646   -2.986856   -0.904573
H       0.923273    1.738065   -0.609235
H      -0.833668    1.751473   -0.744276
H      -0.069286    1.958816    0.853314
H      -0.096395   -0.129183    1.977612
H      -0.524001   -2.438029   -0.214189
H      -1.641641   -3.399797   -4.172765
