18

C      -0.075990    1.472817    0.113914
N       0.032789    0.022755   -0.052955
C      -1.271222   -0.606131   -0.067469
C      -1.302212   -2.097691    0.067294
O      -0.071551   -2.761960    0.181636
C       0.652020   -2.078007    1.170332
C      -0.272871   -1.241981    2.043328
C      -1.584435   -1.255265    1.303079
C       0.728633   -0.585997    1.061210
H       0.926179    1.911149    0.129725
H      -0.614008    1.895654   -0.739592
H      -0.601166    1.765995    1.039155
H      -2.027433   -0.111276   -0.665918
H      -2.050799   -2.685942   -0.449488
H       1.490152   -2.650288    1.549165
H      -0.222600   -1.194754    3.122120
H      -2.534612   -1.218188    1.817216
H       1.624127   -0.074529    1.394931
