18

C      -0.682040    1.717007    0.114707
C       0.119088    0.424274   -0.029938
O       1.032678    0.356152    1.042479
C       1.986803   -0.691300    0.941783
C       2.918246   -0.584631    2.146693
C       3.842402   -1.778783    2.253713
O       5.041768   -1.712510    2.316289
C      -0.774406   -0.759467   -0.044306
N      -1.457794   -1.691294   -0.047002
H       0.005770    2.564996    0.092736
H      -1.401471    1.814879   -0.701503
H      -1.220110    1.720789    1.065066
H       0.659967    0.427952   -0.990367
H       1.481411   -1.668976    0.929346
H       2.553681   -0.596860    0.002357
H       3.512470    0.331107    2.111446
H       2.293273   -0.561881    3.050136
H       3.320394   -2.763832    2.279542
