17

C      -0.020730    1.581833    0.026279
C       1.505381    1.738823   -0.031206
O       1.754390    1.002734   -1.240669
C       1.392271   -0.251174   -0.688845
O       2.362516   -0.431491    0.319553
C       2.125779    0.767709    1.077202
C       1.079179    0.335937    2.107142
O       0.068094   -0.395497    1.403287
C      -0.000435    0.035827    0.050269
H      -0.528466    1.988472    0.902184
H      -0.462638    2.001891   -0.878429
H       1.934850    2.737222   -0.087566
H       1.438392   -1.050795   -1.425207
H       3.058388    1.124215    1.515848
H       1.524203   -0.350934    2.832481
H       0.650980    1.187882    2.655603
H      -0.852062   -0.468318   -0.404743
