20

C      -0.255622    1.565423    0.206154
C      -0.032239    0.111451   -0.125009
N      -0.891732   -0.753041    0.215393
C      -0.907991   -2.156830   -0.027573
C      -1.601840   -2.701333   -1.254517
C      -0.116408   -2.913378   -1.076485
C       0.900481   -2.175555   -1.926409
C       1.770487   -1.248951   -1.084364
O       1.148087    0.007555   -0.802771
H       0.555151    1.939265    0.839794
H      -0.248328    2.165512   -0.709576
H      -1.209702    1.684210    0.716652
H      -1.119998   -2.704152    0.887788
H      -2.278351   -3.541529   -1.143349
H      -1.906468   -1.973018   -1.999705
H       0.190901   -3.912675   -0.778447
H       1.547473   -2.894459   -2.441452
H       0.420533   -1.576471   -2.708599
H       2.054928   -1.737389   -0.143093
H       2.686393   -0.973305   -1.615312
