18

N      -0.161896    1.335854    0.040432
C      -0.043855    0.078810    0.066533
C      -1.263940   -0.814658   -0.068602
C      -1.190996   -2.106620    0.739371
C      -0.032229   -3.065498    0.388254
C       0.655554   -2.400876    1.595024
C       1.608817   -1.278914    1.222563
O       1.195084   -0.537907    0.067399
O      -0.609227   -1.856057    2.049151
H       0.763255    1.769038    0.089082
H      -2.128645   -0.219402    0.232274
H      -1.397492   -1.064271   -1.130395
H      -2.183211   -2.560234    0.823195
H      -0.283534   -4.111572    0.566295
H       0.443780   -2.948965   -0.585702
H       1.112800   -3.048838    2.351550
H       1.720307   -0.599760    2.078693
H       2.592440   -1.682363    0.962359
