25

C      -0.101264    1.591330   -0.012995
C      -0.108136    0.063104   -0.129420
C       0.758766   -0.516084   -1.262659
C       0.319977   -0.015510   -2.636719
C       2.292239   -0.415670   -0.962044
C       2.272440   -1.866698   -0.450169
C       0.887777   -2.070071   -1.129384
O       3.357376   -2.636658   -0.900115
C       3.314792   -3.971365   -0.451318
H       0.916227    1.981776    0.097781
H      -0.545824    2.069171   -0.890981
H      -0.674799    1.914444    0.861387
H       0.222820   -0.366794    0.824734
H      -1.140527   -0.284974   -0.272253
H       0.453287    1.066792   -2.738388
H       0.904659   -0.493589   -3.429291
H      -0.737990   -0.239796   -2.820334
H       2.884180   -0.354380   -1.879301
H       2.629955    0.359466   -0.269710
H       2.199632   -1.927585    0.646852
H       0.106748   -2.587876   -0.565209
H       1.009115   -2.553923   -2.103306
H       3.324418   -4.031650    0.648953
H       2.421294   -4.501410   -0.814857
H       4.203420   -4.475475   -0.839253
