23

C      -0.217245    1.558562   -0.062374
C      -0.062605    0.045130   -0.014704
C       1.167330   -0.537303   -0.846121
C       1.762700    0.225542   -2.020871
C       1.888219   -0.571468    0.480755
C       2.959831   -0.145298    1.141751
C       2.586605    0.099892    2.602568
C       1.026812    0.242812    2.563327
C       0.624045   -0.532380    1.291694
H       0.718719    2.070358    0.184454
H      -0.526590    1.893002   -1.058182
H      -0.977600    1.893869    0.651007
H      -1.015953   -0.432227   -0.261436
H       0.900023   -1.552605   -1.166330
H       2.045565    1.243570   -1.738169
H       2.662519   -0.277922   -2.390453
H       1.053275    0.286991   -2.853388
H       3.941212    0.075609    0.737452
H       2.896394   -0.731672    3.251887
H       3.071853    0.996601    3.004340
H       0.547668   -0.131892    3.472390
H       0.765117    1.302291    2.472197
H       0.208684   -1.521470    1.519679
