19

O      -0.522402    1.522413   -0.299162
C      -0.013346    0.223675    0.015097
C      -1.109130   -0.862545    0.202494
C      -1.058850   -1.751477   -1.064451
C       0.255361   -1.372636   -1.712248
C       0.781616   -2.099895   -2.926434
C       0.978009   -3.531120   -2.698636
C       1.133444   -4.705572   -2.497103
C       0.832105   -0.334576   -1.103386
H      -0.886982    1.476938   -1.190115
H       0.553396    0.382910    0.938082
H      -0.881998   -1.464268    1.087363
H      -2.081369   -0.392804    0.369183
H      -1.096110   -2.819761   -0.827126
H      -1.896075   -1.566870   -1.752438
H       0.075126   -1.971896   -3.760347
H       1.724967   -1.645058   -3.250132
H       1.276539   -5.743679   -2.326102
H       1.768273    0.126120   -1.401047
