17

C       0.405860    1.210198    0.518487
N      -0.292759    0.213556   -0.285819
C       0.515797   -0.398330   -1.327213
C       1.279789   -1.654810   -0.851943
O       0.437335   -2.552551   -0.147455
C      -0.375487   -0.729766   -2.526419
F      -1.014919    0.336556   -2.998778
F       0.350401   -1.249175   -3.534231
F      -1.311441   -1.655008   -2.204376
H       1.336990    0.854322    0.991830
H       0.654987    2.076007   -0.104545
H      -0.261388    1.556505    1.312403
H      -0.642228   -0.532014    0.308340
H       1.240315    0.333171   -1.702924
H       1.781108   -2.141160   -1.699311
H       2.050329   -1.345743   -0.139862
H      -0.218130   -2.889870   -0.767716
