18

N      -0.057316    1.625831    0.371944
C      -0.065577    0.238761   -0.012176
C       0.954442   -0.325377   -0.970479
C       1.061651   -0.642264    0.520907
C       2.122896   -0.054190    1.285049
N       2.966903    0.456663    1.890914
C      -1.462133   -0.322068    0.033780
C      -2.310354   -0.338178   -1.187191
N      -1.846106   -1.596944   -0.579392
H       0.861448    1.939654    0.666079
H      -0.366217    2.214283   -0.394673
H       0.713429   -1.154462   -1.627782
H       1.683572    0.367526   -1.374106
H       0.783455   -1.643401    0.831881
H      -1.945506   -0.134075    0.989012
H      -3.378275   -0.156045   -1.114427
H      -1.853880   -0.018561   -2.120987
H      -1.087447   -1.987619   -1.132540
