22

C      -1.441087    0.501134    0.274372
C      -0.043067   -0.026012   -0.063560
O       0.723967    0.948160   -0.770341
C       0.712421   -0.549925    1.157946
C       0.740880    0.381756    2.359187
C       0.800605   -1.993779    1.490521
C       0.833005   -2.916162    0.272645
C       2.018834   -2.055584   -0.232387
N       2.031164   -1.220436    1.022571
H      -1.395731    1.375404    0.931686
H      -1.949726    0.799316   -0.646113
H      -2.042452   -0.266810    0.772683
H      -0.166678   -0.833527   -0.787957
H       0.962096    1.648667   -0.153891
H      -0.248216    0.491852    2.813298
H       1.429388   -0.010302    3.110714
H       1.102191    1.380272    2.084879
H       0.703446   -2.337309    2.517488
H       1.138487   -3.931165    0.533417
H      -0.073237   -2.977233   -0.337643
H       2.957242   -2.609131   -0.299557
H       1.886014   -1.474995   -1.148099
