13

C      -0.126139   -1.229643   -0.003406
C      -0.057239   -0.031640    0.002378
C       0.015251    1.430576    0.009617
C       1.382306    1.944007   -0.000689
C       2.513106    2.378719   -0.009158
C       3.774572    2.864144   -0.018594
C       4.910770    3.303376   -0.027081
C       6.172949    3.790617   -0.036515
C       7.301237    4.226603   -0.044944
H      -0.182581   -2.290152   -0.008514
H      -0.528289    1.829652   -0.858691
H      -0.511521    1.820154    0.892452
H       8.291961    4.608612   -0.052352
