21

C      -0.176469    1.507538   -0.004842
C       0.018439   -0.005487   -0.022338
C       1.023945   -0.505944   -1.081875
C       1.202851   -1.994566   -0.737266
C       1.914446   -1.332579    0.462934
C       3.029870   -1.962688    1.245554
O       2.319314   -0.235059   -0.444025
C       0.776767   -0.603317    1.226734
O       1.290654    0.356942    2.122612
H       0.783061    2.031415   -0.051861
H      -0.769742    1.825789   -0.868408
H      -0.691070    1.832831    0.902983
H      -0.951193   -0.498432   -0.151661
H       0.951300   -0.125685   -2.101224
H       0.315134   -2.607455   -0.558271
H       1.910853   -2.498951   -1.396691
H       3.841412   -2.276607    0.583935
H       3.422937   -1.259288    1.984720
H       2.657632   -2.841788    1.782330
H       0.155045   -1.275880    1.823528
H       1.930764    0.873674    1.615811
