18

C       0.243772    1.493959   -0.232468
C       0.000914    0.012163    0.048726
O       0.495620   -0.783116   -1.040127
C       1.367310   -1.801813   -0.571412
C       2.722346   -1.715092   -1.312737
C       2.593682   -1.943438   -2.749585
N       2.494452   -2.138825   -3.883906
C       1.487724   -1.556675    0.910329
C       0.716090   -0.533874    1.255995
H       1.315378    1.706159   -0.289145
H      -0.217905    1.773861   -1.183037
H      -0.194857    2.111295    0.558427
H      -1.085343   -0.156248    0.135856
H       0.928406   -2.789890   -0.784671
H       3.159360   -0.726221   -1.141425
H       3.413043   -2.460316   -0.901122
H       2.112898   -2.156629    1.559564
H       0.582041   -0.127687    2.250699
