11

N       0.195220   -1.145574   -0.005965
C       0.058864    0.003744    0.002193
C      -0.076162    1.410384    0.011829
C      -1.203443    2.233179    0.032260
C      -0.677846    3.547948    0.032101
N       0.648522    3.543303    0.013273
N       0.991034    2.250178    0.001313
C      -2.561101    1.837915    0.049273
N      -3.677576    1.533498    0.063385
H      -1.226006    4.476964    0.044975
H       1.965416    1.990476   -0.013927
