16

C       0.205157    1.520235    0.073688
C       0.035601    0.017663   -0.023359
C       0.748792   -0.647236   -1.266027
C       1.421958   -1.773003   -0.560764
C       1.298628   -1.660812    0.776121
O       0.579332   -0.592849    1.204853
C       2.033612   -2.749184    1.295103
N       2.558974   -3.455952    0.308116
O       2.172088   -2.829263   -0.888342
H       1.266149    1.786225    0.102013
H      -0.253455    2.009057   -0.791894
H      -0.272582    1.902856    0.979378
H      -1.027434   -0.247938   -0.040175
H       0.021190   -0.950395   -2.024369
H       1.459444    0.040369   -1.742168
H       2.212950   -3.062928    2.312455
