16

C      -0.004671    1.446621   -0.022129
N      -0.003764   -0.003612    0.017757
C      -0.089763   -0.850159   -1.053943
N      -0.063096   -2.109705   -0.692284
C       0.045640   -2.087739    0.682729
C       0.083396   -0.792475    1.136061
C       0.109532   -3.310811    1.516451
N       0.052310   -4.462832    0.795413
O       0.204773   -3.267387    2.732888
H       0.922118    1.846706    0.398865
H      -0.086467    1.772556   -1.060490
H      -0.852347    1.849434    0.539495
H      -0.169115   -0.476845   -2.064783
H       0.162611   -0.388524    2.130831
H      -0.029107   -4.423449   -0.206957
H       0.086015   -5.343504    1.278297
