14

O       0.085173    1.438728    0.093524
C       0.023058    0.049607    0.047637
C      -1.384569   -0.661445   -0.154900
C      -1.833049    0.040775   -1.443487
O      -0.572318    0.079099   -2.190895
C       0.335059   -0.628938   -1.321978
C      -0.535773   -1.784013   -0.783566
O      -0.492121   -2.974857   -0.742369
H      -0.018025    1.750365   -0.815962
H       0.577380   -0.366218    0.890924
H      -2.108692   -0.819431    0.639300
H      -2.583701   -0.517162   -2.011444
H      -2.186555    1.062796   -1.275149
H       1.318124   -0.716294   -1.776135
