20

C      -0.197760    1.516962   -0.032823
C      -0.101885   -0.001863   -0.190794
C       1.061410   -0.441106   -1.087339
O       2.325459   -0.003516   -0.592291
C       1.073402   -1.947178   -1.268856
O       0.013686   -2.525090   -2.036118
C       1.356986   -2.648877   -2.530267
C       1.683763   -1.983912   -3.841722
H       0.739719    1.927806    0.351937
H      -0.399321    1.999260   -0.995620
H      -1.003000    1.793380    0.654100
H       0.017709   -0.477275    0.794701
H      -1.027885   -0.406892   -0.614638
H       0.957430    0.044154   -2.062708
H       2.417528   -0.333280    0.308956
H       1.291068   -2.487814   -0.340918
H       1.753682   -3.662159   -2.433745
H       1.254873   -0.982634   -3.910909
H       2.768935   -1.908562   -3.968240
H       1.288373   -2.577883   -4.672355
