16

C       0.000077    1.403325   -0.011359
N      -0.096080   -0.036905   -0.003391
C      -1.258965   -0.711091    0.006630
N      -2.403463   -0.068392    0.008754
N      -3.507436   -0.847029    0.018956
N      -3.583513   -2.156664    0.026738
C      -2.449491   -2.815935    0.024875
C      -1.157677   -2.182711    0.014755
N       0.022314   -2.708816    0.012042
H       1.053864    1.686463   -0.019035
H      -0.488077    1.830909   -0.895181
H      -0.477718    1.840205    0.873609
H       0.719304   -0.633159   -0.003323
H      -4.381493   -0.348727    0.020040
H      -2.530739   -3.898258    0.031568
H      -0.029356   -3.728378    0.018358
