18

O      -0.184827    1.525307    0.417293
C      -0.047131    0.149241    0.060526
C       0.688781   -0.650861    1.146338
C      -0.389919   -0.859397    2.225757
C      -1.658985   -1.178689    1.407481
C      -1.454409   -0.452887    0.074559
C      -2.526137    0.103595   -0.752425
O      -1.885123   -1.124851   -1.114024
H       0.700120    1.889769    0.522418
H       0.401830    0.046059   -0.935646
H       1.003246   -1.615943    0.729783
H       1.586799   -0.140421    1.509989
H      -0.136867   -1.644539    2.942223
H      -0.527216    0.071687    2.783798
H      -1.730755   -2.252158    1.200645
H      -2.580683   -0.881060    1.913867
H      -3.559759    0.010237   -0.420923
H      -2.320200    0.952367   -1.402147
