23

C       0.099851    1.545502    0.059643
C       0.017400    0.028480   -0.011951
C       0.657832   -0.548415   -1.284196
C       0.987233   -2.033737   -1.151560
C       2.209778   -2.459142   -0.364811
C       0.835598   -2.731503    0.186562
C       0.324844   -4.154958    0.233443
C       0.372775   -1.860308    1.343833
O       0.657388   -0.488492    1.152483
H       1.146104    1.865729    0.089854
H      -0.374894    1.998476   -0.816313
H      -0.398518    1.916950    0.958984
H      -1.042801   -0.280072    0.016635
H      -0.030316   -0.391704   -2.122518
H       1.568513    0.017599   -1.518248
H       0.759766   -2.635713   -2.026691
H       2.794036   -3.297774   -0.729287
H       2.788184   -1.668465    0.102808
H       0.684533   -4.731928   -0.624161
H       0.661816   -4.669552    1.141975
H      -0.771336   -4.187709    0.221590
H      -0.713444   -1.999653    1.493454
H       0.875738   -2.151433    2.273523
