20

N      -0.128120    1.359687    0.094177
C       0.083776    0.013165   -0.011397
O       1.201387   -0.459306   -0.085577
C      -1.197124   -0.825531   -0.014990
C      -0.946754   -2.312643   -0.010227
C      -0.181553   -3.149465    1.062012
C      -0.666301   -4.173770   -0.002607
C      -2.033074   -3.431456    0.006323
C      -0.202203   -3.161345   -1.087471
H       0.668526    1.971756    0.028677
H      -1.048655    1.761628    0.069075
H      -1.805352   -0.541720    0.854572
H      -1.787171   -0.547864   -0.899767
H       0.892393   -2.970324    1.130237
H      -0.647841   -3.215991    2.050462
H      -0.507469   -5.252354    0.002239
H      -2.635051   -3.516930    0.916784
H      -2.652158   -3.527089   -0.891530
H      -0.688173   -3.238598   -2.065655
H       0.869621   -2.981846   -1.178886
