17

O       0.077561    1.445581    0.272384
C       0.152635    0.072095   -0.043238
C      -1.245735   -0.547431   -0.053587
C      -1.445408   -2.107775   -0.083624
C      -2.474000   -1.986936    1.095088
C      -1.953780   -0.562607    1.303056
O      -1.923633    0.196409    2.232117
C      -1.986560   -2.665679   -1.370678
O      -1.474099   -3.538782   -2.019267
H      -0.354054    1.513584    1.134206
H       0.620197   -0.007011   -1.029869
H       0.789222   -0.478819    0.667961
H      -1.869373   -0.049428   -0.807275
H      -0.540034   -2.646868    0.201551
H      -3.510210   -1.981124    0.734908
H      -2.392983   -2.685876    1.929598
H      -2.940767   -2.184651   -1.698721
