20

C       0.012243    1.567391   -0.037365
C       1.536041    1.453647   -0.068186
C       2.061196    0.778046    1.134640
C       1.500221    0.922436    2.547392
C       0.577032   -0.203774    3.021067
O      -0.700292   -0.159619    2.413927
C      -0.757644   -0.727345    1.122458
C       0.001298    0.018126    0.036736
N       1.512398   -0.068524    0.042612
H      -0.409965    2.102137    0.818240
H      -0.426009    1.962480   -0.954736
H       2.179489    1.957408   -0.783161
H       3.142855    0.661753    1.118778
H       2.347715    0.976449    3.240880
H       0.954510    1.867139    2.654688
H       1.048928   -1.185063    2.854966
H       0.399864   -0.092831    4.096307
H      -0.394363   -1.769454    1.142457
H      -1.821899   -0.749254    0.860680
H      -0.313730   -0.408249   -0.922071
