17

C      -0.019348    1.633421    0.042621
C       0.036712    0.105493   -0.024646
N       0.832609   -0.427747   -1.116717
C       0.515318   -0.256963   -2.516812
C       1.800894   -1.284643   -0.690443
O       2.586718   -1.927639   -1.324734
O       1.760197   -1.317065    0.706970
C       0.749309   -0.509101    1.167573
N       0.464891   -0.304256    2.374003
H       0.988861    2.056750    0.059596
H      -0.559835    2.043659   -0.814956
H      -0.537883    1.929176    0.957135
H      -0.989333   -0.289401   -0.069995
H       0.580218    0.794979   -2.813347
H       1.238578   -0.834623   -3.093634
H      -0.495434   -0.621747   -2.739361
H       1.085880   -0.823877    2.995510
