14

N      -0.308657   -1.196743    0.014209
C      -0.164235   -0.050772    0.035040
C      -0.022607    1.396137    0.042527
C      -0.277699    2.130602    1.371677
N       0.753175    1.652861    2.307305
C       1.081545    2.732331    1.362118
C       1.437650    2.043320    0.031800
C       2.604452    1.176239    0.014136
N       3.550117    0.513361   -0.014887
H      -0.606635    1.820694   -0.776786
H      -1.225019    2.528069    1.709339
H       0.574913    2.069903    3.219228
H       1.427945    3.702622    1.690694
H       1.505190    2.756954   -0.792077
