23

C      -0.065734    1.567987   -0.007227
C       0.037385    0.052491    0.023143
C       1.112532   -0.643228   -0.874180
C       1.202308   -1.731009    0.239632
C       0.756205   -0.619845    1.229180
C       0.108457   -2.755296   -0.029179
C      -1.010659   -3.012425    0.946208
C      -1.255952   -2.147884   -0.271661
C      -1.336145   -0.620415   -0.199711
H       0.910638    2.033784    0.165225
H      -0.439445    1.923027   -0.975205
H      -0.752331    1.935286    0.765259
H       0.818472   -0.967411   -1.877171
H       2.021357   -0.037046   -0.935814
H       2.168172   -2.206768    0.425013
H       1.617016   -0.025089    1.550425
H       0.169577   -0.882672    2.112781
H       0.414012   -3.583840   -0.662468
H      -1.457344   -4.001348    0.947098
H      -0.980907   -2.549297    1.925911
H      -1.874022   -2.599246   -1.041181
H      -2.032643   -0.295652    0.585788
H      -1.748615   -0.248607   -1.146229
