18

N      -0.228168    1.101319   -0.085012
C      -0.454176   -0.205609   -0.366536
O      -0.354373   -0.702344   -1.474134
O      -0.773533   -0.882539    0.758180
C      -0.887323   -2.311938    0.624533
C      -2.280431   -2.753458    0.194742
O      -2.664292   -2.228542   -1.069678
C      -2.374109   -4.286231    0.129226
O      -3.615429   -4.674318   -0.411618
H      -0.157109    1.735093   -0.861287
H      -0.457930    1.462737    0.824262
H      -0.133913   -2.662808   -0.086950
H      -0.658043   -2.707727    1.617080
H      -3.015341   -2.390801    0.926783
H      -1.873204   -1.887136   -1.517094
H      -1.532916   -4.673661   -0.473072
H      -2.298331   -4.724176    1.131258
H      -3.750012   -4.084981   -1.166623
