17

C       0.006609    1.424016   -0.119902
C       1.462340    1.914043    0.118291
C       2.251280    0.630210    0.019252
C       3.590916    0.344773   -0.108672
C       3.974607   -1.006906   -0.142183
C       2.994862   -1.984368   -0.047642
N       1.677970   -1.734446    0.078514
C       1.351330   -0.451035    0.113962
N       0.054175    0.009536    0.271630
H      -0.724902    1.974360    0.477429
H      -0.264234    1.538971   -1.180463
H       1.761700    2.680517   -0.601133
H       1.559045    2.351752    1.120183
H       4.332956    1.133767   -0.189385
H       5.015478   -1.287903   -0.249380
H       3.270262   -3.035819   -0.078736
H      -0.688079   -0.605323   -0.027874
