18

N      -0.185981    1.270253    0.113166
C       0.084426   -0.066263    0.037753
O       1.187804   -0.555916    0.009930
O      -1.086111   -0.763884    0.032206
C      -0.984350   -2.164344    0.010356
C      -0.348955   -3.098644    1.073908
C      -0.984808   -4.012634   -0.016602
C      -2.229578   -3.071578    0.008312
C      -0.368444   -3.067354   -1.091380
H       0.581111    1.892090   -0.074696
H      -1.119107    1.591690   -0.079329
H       0.738792   -3.085739    1.139413
H      -0.826337   -3.110828    2.057267
H      -0.992627   -5.099086   -0.032332
H      -2.832363   -3.078288    0.920014
H      -2.848697   -3.052248   -0.892281
H      -0.863595   -3.051592   -2.065994
H       0.717941   -3.052430   -1.176160
