12

C       0.010281    1.476553   -0.074004
C      -0.065613   -0.002119    0.043772
N      -1.064263   -0.786294   -0.223768
C      -0.543519   -2.031539    0.075928
N       0.700634   -2.014445    0.502251
O       1.021537   -0.659228    0.481405
C      -1.275729   -3.237711   -0.059107
C      -1.903034   -4.255489   -0.176313
H       0.805317    1.766311   -0.767439
H      -0.943980    1.855955   -0.438140
H       0.234944    1.928311    0.896703
H      -2.457218   -5.156012   -0.279742
