17

C       0.193780    1.365906    0.033495
N       0.107643   -0.078501    0.071247
N       0.109716   -0.797085   -1.091919
C      -0.022448   -2.041335   -0.648508
N      -0.131886   -3.129881   -1.491821
N      -0.092531   -2.169494    0.705809
C      -0.016153   -0.911104    1.123201
C      -0.058637   -0.483371    2.559573
O       1.041952    0.336512    2.941077
H       0.950575    1.654842   -0.698806
H      -0.764172    1.806822   -0.261379
H       0.485111    1.723163    1.021049
H       0.272345   -2.978076   -2.404318
H       0.174059   -3.991519   -1.064390
H      -0.950037    0.120852    2.759646
H      -0.129435   -1.393873    3.166248
H       1.847263   -0.172402    2.797393
