20

C       0.038955    1.573047    0.065825
C       0.044916    0.073070    0.008537
C      -0.895282   -0.798143    0.790471
C       0.587115   -0.954106    1.007433
C       1.228348   -1.782308   -0.132310
C       0.831197   -3.256582   -0.272825
C       0.619529   -0.744452   -1.159819
C       2.685525   -1.665298   -0.089771
N       3.838188   -1.579571   -0.049738
H       1.024219    1.985609   -0.177993
H      -0.683367    1.993676   -0.644209
H      -0.235929    1.927868    1.064347
H      -1.412659   -0.304963    1.607766
H      -1.483593   -1.573106    0.305177
H       1.048831   -0.800004    1.975335
H      -0.256261   -3.358675   -0.301409
H       1.239332   -3.682306   -1.194307
H       1.209530   -3.843176    0.569360
H      -0.108725   -1.165031   -1.860743
H       1.392662   -0.219731   -1.723160
