17

C       0.006368    1.494102    0.139517
O       1.345671    1.961314   -0.001119
C       2.123641    1.006439   -0.715789
C       1.422669   -0.317438   -0.528164
C       1.736718   -1.639181   -1.207266
N       1.342345   -2.668123   -0.224399
C       0.997856   -2.057099    0.837278
N       1.088276   -0.633297    0.893724
C       0.071259   -0.008551   -0.008229
H      -0.359609    1.826299    1.115941
H      -0.649814    1.906692   -0.644101
H       2.177692    1.250385   -1.789662
H       3.137315    1.025598   -0.302150
H       1.199392   -1.795710   -2.148485
H       2.807659   -1.737575   -1.427448
H       0.664587   -2.575130    1.732147
H      -0.809080   -0.585609   -0.271301
