15

C      -0.072921    1.407048    0.064478
O       0.042591   -0.008724    0.011732
C       0.687717   -0.549408   -1.131315
C       2.168793   -0.119734   -1.244494
C       0.599924   -2.009585   -1.006276
C       0.569168   -3.205138   -0.914832
C      -0.032445   -0.135484   -2.371674
N      -0.581171    0.225725   -3.321973
H       0.898701    1.899000    0.196645
H      -0.562446    1.808682   -0.831737
H      -0.695465    1.619109    0.935334
H       2.677060   -0.386583   -0.315491
H       2.645049   -0.639702   -2.077877
H       2.250877    0.955636   -1.413975
H       0.525324   -4.263603   -0.831872
