25

C      -0.548946    1.930891   -0.664827
C      -0.415319    0.416417   -0.840907
C      -1.151075   -0.361910    0.240998
O      -0.978580   -1.743404    0.007202
C      -1.624715   -2.556512    0.958179
C      -1.356538   -4.006864    0.586666
O      -2.002589   -4.820367    1.537383
C      -1.828622   -6.202208    1.301214
C      -2.564511   -6.975862    2.381882
H      -0.012753    2.466984   -1.453109
H      -1.597365    2.246869   -0.703060
H      -0.139555    2.259247    0.296976
H      -0.808062    0.110605   -1.817439
H       0.640571    0.122850   -0.823463
H      -0.763383   -0.091715    1.239111
H      -2.224948   -0.104402    0.236097
H      -1.247994   -2.359006    1.975034
H      -2.711338   -2.372022    0.969635
H      -1.733088   -4.204179   -0.430329
H      -0.269840   -4.191150    0.575150
H      -2.215198   -6.468227    0.302525
H      -0.754732   -6.455826    1.306020
H      -2.170860   -6.722784    3.370455
H      -3.631394   -6.735423    2.366866
H      -2.448424   -8.052632    2.226505
