14

O      -0.041059    0.047240   -0.014526
C      -0.072566    1.237429    0.013429
C      -1.248676    2.223084    0.035869
C      -0.830147    3.244920   -1.050289
C       0.222592    3.527883    0.043695
O      -0.769513    3.161347    1.050142
C       1.127893    2.265367    0.026749
C       1.993446    2.141227    1.184823
N       2.688487    2.050361    2.103734
H      -2.252284    1.833603    0.185496
H      -0.508514    2.889940   -2.032598
H      -1.556780    4.053050   -1.130813
H       0.694115    4.495001    0.203982
H       1.718060    2.157029   -0.888929
