22

C       0.228577    1.734629   -0.113570
C       0.054952    0.217362    0.035840
C       0.615321   -0.576817   -1.155143
N      -0.082903   -0.264862   -2.397967
C       0.564973    0.670141   -3.313891
C       0.522497   -0.785176   -3.618340
C       0.708842   -0.264635    1.313493
C      -0.040678   -0.451182    2.561475
O       0.354237   -1.573424    1.769253
H       1.287308    2.006390   -0.203799
H      -0.289921    2.099507   -1.002900
H      -0.177003    2.262660    0.755484
H      -1.015198   -0.013532    0.099927
H       1.706064   -0.404060   -1.239696
H       0.472961   -1.643473   -0.950066
H      -0.093256    1.363649   -3.829860
H       1.527466    1.087743   -3.021598
H       1.456958   -1.337388   -3.527530
H      -0.167646   -1.177699   -4.359813
H       1.777218   -0.048304    1.397795
H       0.464062   -0.355744    3.521989
H      -1.110520   -0.245739    2.577524
