19

C       0.167203    1.510154    0.205517
C       1.364662    0.631581   -0.045197
O       2.276768    0.268772    0.946636
C       1.747008   -0.079515    2.237199
C       0.615809   -1.081342    2.154427
C      -0.202347   -0.956119    1.116061
C      -1.255889   -1.723236    0.336477
C      -0.907544   -0.825143   -0.911026
C      -0.010072    0.016000    0.013455
H      -0.021834    1.932212    1.186899
H      -0.131168    2.148665   -0.620954
H       1.882854    0.726829   -0.993823
H       2.598753   -0.499038    2.779785
H       1.448870    0.837892    2.769079
H       0.565045   -1.891417    2.874601
H      -1.096086   -2.799383    0.228012
H      -2.276498   -1.561496    0.697932
H      -0.366434   -1.362442   -1.694374
H      -1.753205   -0.299213   -1.360872
