16

C      -0.238513    1.677559   -0.080893
C       0.029862    0.183741   -0.075535
C       0.834551   -0.429706   -1.248480
C       1.809944   -0.888318   -0.147114
O       1.051260   -0.192126    0.871344
C      -1.248285   -0.601389    0.236476
F      -2.180520   -0.380675   -0.708813
F      -1.018355   -1.921327    0.273922
F      -1.769093   -0.246217    1.415809
H       0.685529    2.215205   -0.304721
H      -0.991047    1.932732   -0.832255
H      -0.599893    1.998721    0.899472
H       0.335861   -1.216134   -1.813927
H       1.233535    0.317703   -1.935210
H       1.830834   -1.968126    0.034097
H       2.835393   -0.510764   -0.213683
