18

C      -0.320406    1.441698    0.079896
C       0.245319    0.030377   -0.116695
C       0.890308   -0.510619    1.142886
C       0.062534   -1.159452    2.226701
C       1.006045   -2.001873    1.377299
O       0.438404   -2.806943    0.376142
C       2.200297   -2.534176    1.982291
C       3.181924   -3.008024    2.491884
H       0.464320    2.148533    0.371324
H      -0.777183    1.813299   -0.842566
H      -1.084791    1.455046    0.864008
H      -0.545302   -0.653189   -0.438656
H       0.988079    0.040001   -0.923996
H       1.746712    0.059217    1.493502
H       0.315296   -0.989314    3.266746
H      -0.992636   -1.308530    2.020391
H       0.181431   -3.640887    0.785087
H       4.056804   -3.417836    2.932385
