19

C       0.057305    1.394345    0.073686
O      -0.113258    0.008603   -0.122477
C       0.659011   -0.552336   -1.176874
C       2.135812   -0.695696   -0.800948
C       0.027713   -1.907914   -1.499212
C      -1.453402   -1.772331   -1.900909
C      -2.076807   -3.060923   -2.188521
N      -2.555077   -4.088505   -2.414524
H       1.063676    1.650061    0.433486
H      -0.133239    1.961397   -0.850956
H      -0.668142    1.701849    0.830736
H       0.576237    0.100403   -2.064712
H       2.696670   -1.155465   -1.620587
H       2.593296    0.274994   -0.591730
H       2.241088   -1.324454    0.088626
H       0.590740   -2.386641   -2.306272
H       0.106253   -2.555534   -0.619524
H      -2.000944   -1.278673   -1.093116
H      -1.550579   -1.134843   -2.788029
