17

N      -0.333883    1.304807    0.151922
C      -0.159130   -0.069804    0.282678
O       0.686599   -0.565660    1.000914
N      -1.039489   -0.813327   -0.475050
C      -1.116555   -2.222965   -0.312322
C      -1.911493   -2.832491    0.825064
O      -2.543268   -1.924401    1.689652
C      -2.471680   -2.852674   -0.582693
O      -3.537303   -1.982363   -0.825135
H       0.455442    1.823555    0.506333
H      -0.680910    1.647015   -0.731862
H      -1.878945   -0.381802   -0.834641
H      -0.229368   -2.771532   -0.612268
H      -1.532351   -3.739590    1.287441
H      -3.096325   -2.428042    2.295826
H      -2.535143   -3.771855   -1.156518
H      -3.786858   -1.631694    0.044270
