15

N       0.176202    1.389838    0.408446
C      -0.061662    0.001132    0.033108
C      -1.509271   -0.400983   -0.127001
C      -2.277302    0.149309   -1.319941
C      -1.575677   -1.170890   -1.415683
O      -0.309657   -1.142342   -2.056676
C       0.573870   -0.411068   -1.316094
O       1.668202   -0.129221   -1.708371
H       1.167293    1.587486    0.285347
H      -0.313227    2.002805   -0.238716
H       0.403336   -0.633785    0.799391
H      -2.067427   -0.715475    0.745071
H      -3.358774    0.145576   -1.245359
H      -1.866407    0.973835   -1.894556
H      -2.090344   -2.111814   -1.556450
