17

C       0.074934    1.476562   -0.117962
C      -0.031253   -0.015587    0.031850
C      -1.326946   -0.707541    0.521226
N      -0.540172   -1.660014    1.374752
C       0.629159   -2.150232    0.560785
C       0.675153   -0.806986    1.168520
C       0.625272   -1.981077   -0.919861
N       0.875604   -2.881277   -1.768837
O       0.362743   -0.662960   -1.199224
H       1.102156    1.765215   -0.359540
H      -0.578101    1.828364   -0.922045
H      -0.218889    1.974031    0.810408
H      -1.927028   -0.079668    1.184069
H      -1.959124   -1.164893   -0.246111
H       1.116363   -3.015540    0.987834
H       1.321128   -0.460352    1.966083
H       0.853193   -2.498784   -2.715847
