17

O       0.640554    0.011013    0.829859
C      -0.105578    0.319837   -0.342787
C      -1.480972   -0.313179   -0.331591
N      -2.208032   -0.485991    0.957877
C      -1.772088   -1.676689    0.184539
C      -2.868243   -2.293963   -0.677248
C      -3.193003   -1.183070   -1.657536
C      -2.419158   -0.110187   -1.480672
H       0.563874    0.749745    1.438898
H      -0.196845    1.407735   -0.475592
H       0.463155   -0.060268   -1.200429
H      -1.515885   -0.371897    1.699861
H      -0.989060   -2.294746    0.609258
H      -2.519069   -3.199926   -1.190021
H      -3.742623   -2.581030   -0.080543
H      -3.993368   -1.264192   -2.384780
H      -2.469031    0.809837   -2.052245
