17

C      -0.350429    1.376179    0.436791
N       0.102844    0.057004   -0.004642
C      -1.017735   -0.827111   -0.350575
C      -1.417631   -1.561830    0.941470
O      -2.449898   -2.143835    1.154889
C      -0.225099   -1.397441    1.851538
C       0.835835   -0.663669    1.055601
N      -0.040042   -1.750060    3.065680
O      -1.123186   -2.391825    3.633745
H       0.519825    1.993559    0.677448
H      -0.891180    1.862321   -0.380172
H      -1.012040    1.358779    1.321724
H      -1.860986   -0.282476   -0.779395
H      -0.696841   -1.578201   -1.087285
H       1.525066   -1.382231    0.590149
H       1.430157    0.018939    1.664988
H      -0.811561   -2.568283    4.529380
