18

C      -0.753642    1.325316   -0.020854
C      -0.032412   -0.007140   -0.041561
O       1.188621    0.034471   -0.826768
C       1.997825   -0.485571    0.264120
C       3.137986    0.348448    0.598906
C       4.081204    1.030047    0.900294
C       0.769886   -0.441650    1.186227
C       0.647290   -0.026043    2.593380
N       0.463481   -1.439669    2.191206
H      -0.100802    2.112010    0.366478
H      -1.066101    1.599185   -1.033303
H      -1.651354    1.268214    0.605088
H      -0.697377   -0.800895   -0.415211
H       2.325194   -1.512644    0.054831
H       4.918112    1.632101    1.155862
H       1.543119    0.169558    3.175587
H      -0.224007    0.556626    2.882159
H      -0.525737   -1.679092    2.165640
