21

C      -0.527991    1.400057   -0.120130
C      -0.028624   -0.035726   -0.083666
C       1.367456   -0.365901   -0.713389
O       2.278776    0.702645   -0.771073
C       1.613687   -1.361089    0.455361
C       0.462641   -0.688776    1.260539
C       0.872280    0.297935    2.325287
C       2.083077    0.167750    3.145113
O       2.031174    1.116513    2.070551
H       0.221417    2.099144    0.259480
H      -0.757388    1.695990   -1.149024
H      -1.442422    1.521191    0.471604
H      -0.777441   -0.699075   -0.530962
H       1.338560   -0.792556   -1.719698
H       2.448361    0.994429    0.137741
H       1.373962   -2.394790    0.194149
H       2.622317   -1.333541    0.875132
H      -0.255454   -1.378501    1.717415
H       0.047563    0.866449    2.757238
H       2.113891    0.608794    4.139586
H       2.752179   -0.675696    2.989933
