16

C      -0.285909   -1.264554   -0.301830
C      -0.140644   -0.083683   -0.136665
C       0.024440    1.348801    0.070899
C      -0.593607    1.860491    1.379989
O      -0.005672    1.316888    2.559579
C       0.447126    2.601535    2.104705
C       1.713180    2.557840    1.284720
C       2.333389    1.222100    1.078641
N       1.453805    1.786441    0.046816
H      -0.413000   -2.308481   -0.449812
H      -0.468571    1.885981   -0.750845
H      -1.659582    2.072251    1.428607
H       0.243907    3.437887    2.766730
H       2.279491    3.478994    1.182807
H       3.374512    1.150425    0.776785
H       1.963213    0.409567    1.693474
