15

O       0.675784    0.674811    0.906994
C       0.107997   -0.284500    0.076959
C      -1.388097   -0.144116   -0.187549
O      -2.168751    0.402591    0.548879
C      -1.618385   -0.826443   -1.508565
C      -1.243010   -0.073234   -2.742981
N      -0.294687   -1.024966   -2.157704
C       0.674688   -0.355418   -1.335535
N       1.753607    0.107356   -1.791266
H      -0.057003    1.112461    1.364106
H       0.211111   -1.305029    0.500796
H      -2.339711   -1.634900   -1.564710
H      -1.687613   -0.382007   -3.683646
H      -1.009960    0.985153   -2.666756
H       2.273399    0.558211   -1.034834
