24

C      -0.251595    1.583321    0.161940
C       0.076474    0.098835   -0.019675
C       0.702422   -0.537003    1.225927
C       1.039388   -2.024097    1.050988
C       1.661959   -2.632239    2.291715
C       0.802022   -3.177864    3.410020
C       1.655738   -4.115753    2.588846
C       1.031662   -5.142999    1.668546
H       0.649805    2.162288    0.392430
H      -0.698348    2.009455   -0.741950
H      -0.958269    1.734272    0.985745
H      -0.837965   -0.448840   -0.284587
H       0.758787   -0.024431   -0.871409
H       1.616032    0.012553    1.493191
H       0.020908   -0.420320    2.079340
H       0.125552   -2.567664    0.782265
H       1.723648   -2.140737    0.198533
H       2.561702   -2.111727    2.614758
H       1.075998   -2.975120    4.439858
H      -0.270488   -3.208347    3.237381
H       2.552730   -4.475729    3.087602
H       0.104068   -4.780401    1.216773
H       1.711383   -5.418196    0.853877
H       0.788259   -6.058322    2.219659
