18

O      -0.088587    0.989552    1.368476
C      -0.043245    0.038175    0.341390
C      -0.645293   -1.288594    0.686114
C      -1.328202   -0.402691   -0.332267
C      -2.640646    0.282449   -0.086960
C      -3.718382   -0.373302    0.735087
N      -3.040836    0.808245    1.239035
C      -3.119549    1.160727   -1.199073
O      -2.610968    1.226753   -2.290245
H      -0.220120    1.857332    0.970394
H       0.864198    0.058955   -0.259982
H      -0.167619   -2.198754    0.342403
H      -1.076732   -1.359117    1.680235
H      -1.218282   -0.694576   -1.371725
H      -4.765679   -0.233054    0.479701
H      -3.469385   -1.352422    1.135074
H      -2.314187    0.583955    1.913887
H      -4.013501    1.763113   -0.925057
