16

C       0.127274    1.196709    0.199850
C      -0.513385   -0.130835    0.525159
O      -0.188714   -0.777905    1.501117
C      -1.609333   -0.605637   -0.425954
C      -1.620382   -2.095018   -0.820933
O      -1.899048   -2.434739   -1.941034
N      -1.328684   -2.955888    0.231854
C      -1.338477   -4.348126    0.211148
O      -1.672690   -5.051128   -0.701732
H       0.824367    1.482623    0.987739
H       0.657757    1.121291   -0.756822
H      -0.639091    1.969597    0.073252
H      -2.562961   -0.403944    0.083077
H      -1.615848   -0.033747   -1.354425
H      -0.991741   -2.500095    1.076974
H      -0.993858   -4.740882    1.189137
