17

N       0.070899    1.275726    0.075994
C       0.090544   -0.082023   -0.037488
O       1.113130   -0.733418   -0.083134
C      -1.300788   -0.715648   -0.160491
C      -1.775221   -0.919975   -1.641361
C      -1.681905   -2.452766   -1.395199
N      -1.326159   -2.163820   -0.005166
C      -0.705620   -2.983576    0.882938
O      -0.583724   -4.178749    0.722916
H       0.948382    1.766665    0.129245
H      -0.782055    1.798827    0.168450
H      -2.019259   -0.184474    0.477157
H      -2.779856   -0.546231   -1.839622
H      -1.086668   -0.530134   -2.391094
H      -2.614249   -3.013206   -1.508886
H      -0.885599   -2.968363   -1.939860
H      -0.352614   -2.440869    1.780819
