18

C       0.198048    1.558065    0.107453
C       0.123155    0.105337    0.062786
C       0.065758   -1.098386    0.038135
C       0.013382   -2.532595   -0.044206
C      -0.481546   -3.346196    1.115621
N      -1.270858   -3.258857   -0.104405
C      -2.500590   -2.483645   -0.049013
C      -3.685592   -3.410173    0.170261
O      -4.714998   -3.073258    0.693735
H       1.225723    1.893304    0.285573
H      -0.138682    2.005699   -0.834081
H      -0.426422    1.963066    0.911169
H       0.773935   -2.978990   -0.681384
H      -0.033508   -4.313198    1.326720
H      -0.822237   -2.790824    1.987318
H      -2.517036   -1.689120    0.709948
H      -2.647837   -1.999851   -1.025423
H      -3.528229   -4.440971   -0.217778
