16

N       0.068108    1.193973   -0.419113
C       0.050328    0.002567   -0.057148
O       1.120249   -0.894770    0.239904
C       0.164539   -1.674088    1.056803
C      -0.709799   -2.985503    0.955772
C      -1.924313   -1.929456    1.180137
C      -0.970366   -1.087819    0.281901
O      -1.006008   -1.842231   -0.960242
C      -0.805765   -3.203576   -0.540081
H       1.022413    1.536545   -0.542823
H       0.252534   -1.341434    2.091152
H      -0.557989   -3.838898    1.615134
H      -2.894632   -2.208771    0.766914
H      -2.005323   -1.590914    2.212016
H       0.112948   -3.606906   -0.980368
H      -1.655064   -3.826083   -0.843395
