21

C      -0.117153    1.583411   -0.160742
C      -0.062202    0.057343   -0.043018
C       1.159582   -0.550689   -0.836373
C       1.981054   -0.590158    0.507638
C       0.632526   -0.499122    1.180900
C      -0.177972   -1.132935    2.025266
C      -1.619333   -0.935426    1.565091
O      -2.321211    0.068129    2.303538
C      -1.454941   -0.601123    0.042081
H       0.863350    2.045150   -0.002144
H      -0.466793    1.878258   -1.156741
H      -0.813009    2.005911    0.571671
H       0.951641   -1.557204   -1.206412
H       1.571151    0.060243   -1.644335
H       2.590821   -1.471207    0.718166
H       2.600592    0.304127    0.625468
H       0.094430   -1.748783    2.874384
H      -2.217637   -1.843008    1.697961
H      -1.678634    0.744262    2.540990
H      -2.279082    0.023627   -0.313247
H      -1.468038   -1.538139   -0.525544
