20

C      -0.092880    1.525260    0.063664
C      -0.030411    0.014960    0.008872
C       0.036188   -0.668418   -1.216462
C       0.068822    0.051718   -2.543157
C       0.084197   -2.077365   -1.217943
N       0.202010   -2.773073   -2.428744
C       0.076917   -2.780861   -0.008104
C       0.021165   -2.095565    1.196163
C      -0.036792   -0.706347    1.205976
H       0.797339    1.989941   -0.376272
H      -0.960038    1.921924   -0.476567
H      -0.163905    1.869240    1.098500
H       0.903071   -0.301675   -3.161171
H      -0.850117   -0.116324   -3.124405
H       0.175380    1.130222   -2.426850
H      -0.261099   -2.342160   -3.215661
H      -0.040503   -3.751298   -2.361427
H       0.116226   -3.866546   -0.022881
H       0.015568   -2.647732    2.130478
H      -0.086147   -0.171629    2.148889
