19

O       0.025536    1.323791    0.042475
C       0.031056   -0.055820    0.002842
C       0.738802   -1.054760    0.969313
C      -0.080138   -1.917921   -0.042869
C      -1.252767   -0.902014    0.151477
C       0.449342   -0.990856   -1.176614
C      -0.177236   -3.400561   -0.058061
C      -0.280492   -4.173900   -1.302988
O       0.950521   -4.112409   -0.581789
H       0.929527    1.636794   -0.070803
H       1.827105   -1.133405    0.897856
H       0.394822   -1.058907    2.007081
H      -1.734493   -0.890562    1.132720
H      -1.980248   -0.835893   -0.661839
H      -0.157914   -0.928117   -2.083759
H       1.516492   -1.065520   -1.400853
H      -0.595221   -3.844447    0.847687
H      -0.780759   -5.141515   -1.295881
H      -0.287430   -3.652319   -2.258562
