12

O       0.082096    1.318537   -0.009729
C       0.065521   -0.021125   -0.075780
C       0.003875   -0.772042   -1.227644
N       0.013511   -2.086397   -0.741308
C      -0.012604   -3.423623   -1.012479
N       0.030976   -4.144460    0.070616
O       0.090788   -3.220754    1.148634
C       0.078367   -1.991960    0.620706
N       0.112428   -0.775624    1.085689
H       0.128508    1.550031    0.926445
H      -0.042467   -0.517799   -2.269026
H      -0.063179   -3.860327   -1.996947
