19

C      -0.208299    1.404099    0.041530
N       0.001687   -0.031401   -0.036326
C      -0.018088   -0.814757    1.186260
C      -1.411442   -0.956217    1.813110
C      -1.391279   -1.808280    3.076087
O      -2.710661   -1.841998    3.593593
C       0.237099   -0.613503   -1.247409
O       0.270405   -0.039687   -2.315749
H       0.496945    1.855749    0.749635
H      -0.042881    1.816156   -0.953994
H      -1.226733    1.648162    0.363651
H       0.381939   -1.807545    0.950041
H       0.671940   -0.360038    1.911585
H      -1.818655    0.027535    2.070014
H      -2.096916   -1.406101    1.086484
H      -1.028473   -2.821922    2.837248
H      -0.686167   -1.376651    3.806258
H      -2.710643   -2.385195    4.387100
H       0.403895   -1.704628   -1.147840
