20

C       0.071766    1.548248   -0.092928
C      -0.144780    0.035105    0.026068
C       0.614374   -0.574171    1.189836
C       0.733731   -2.099916    1.395711
C       1.526616   -2.631100    0.175120
C       2.862661   -2.621209    0.901464
C       2.503910   -1.460994    0.023567
N       2.133946   -0.536483    1.143203
C       2.146044   -1.814381    2.007471
H       1.135174    1.781297   -0.201204
H      -0.459123    1.958604   -0.957380
H      -0.289549    2.070164    0.799944
H      -1.213323   -0.182184    0.155559
H       0.158398   -0.460338   -0.904090
H       0.323729   -0.090169    2.131863
H      -0.034079   -2.726707    1.849238
H       1.198201   -3.249875   -0.648216
H       3.703619   -3.300273    0.892356
H       2.926698   -1.123694   -0.913312
H       2.388899   -1.726857    3.064542
