24

C       0.353675    1.257013   -0.329867
O       0.148209   -0.110784   -0.068393
C      -1.214081   -0.492602    0.103074
C      -1.977084   -0.502626   -1.227176
C      -1.176865   -1.857559    0.788149
C      -0.525373   -2.968694   -0.013676
C      -1.045513   -1.864017    2.275624
N      -2.282616   -2.307242    1.643676
C      -3.484686   -1.515430    1.852171
H       1.433254    1.427784   -0.314270
H      -0.031012    1.567642   -1.312180
H      -0.114543    1.892677    0.438824
H      -1.694569    0.231588    0.777695
H      -2.994923   -0.877538   -1.083495
H      -2.053082    0.503892   -1.648150
H      -1.473316   -1.140016   -1.958490
H       0.475853   -2.668762   -0.335230
H      -0.450252   -3.872619    0.594822
H      -1.112868   -3.217756   -0.903447
H      -0.458689   -2.630173    2.777160
H      -1.047661   -0.896584    2.778448
H      -3.320647   -0.432457    1.967062
H      -4.179086   -1.672269    1.020067
H      -3.974918   -1.871413    2.764563
