19

C       0.047024    1.502682    0.078192
C      -0.027151    0.011236    0.002863
C      -0.134275   -0.744025   -1.095357
C      -0.097321   -2.205686   -0.772681
C      -0.848209   -3.204268   -1.613608
N       1.211745   -2.585453   -0.154961
C       0.047726   -2.272108    0.708144
C       0.055248   -0.851037    1.255176
H       1.006474    1.830027    0.498821
H      -0.063137    1.962571   -0.907691
H      -0.733914    1.907768    0.734964
H      -0.201516   -0.366186   -2.110049
H      -0.408806   -3.288919   -2.614597
H      -0.830638   -4.198983   -1.155731
H      -1.895844   -2.908408   -1.735805
H       1.301895   -3.600826   -0.197474
H      -0.395944   -3.074957    1.288511
H       0.964173   -0.640136    1.832588
H      -0.797116   -0.668083    1.924169
