16

C      -0.000703    1.528531    0.072197
N       1.210508    0.689265   -0.050480
C      -0.096729    0.058755    0.026945
C      -0.451779   -1.005117    1.057305
O      -1.853706   -1.273155    0.900740
C      -0.939714   -1.915149    0.000999
C      -0.628880   -0.872912   -1.070958
C      -1.201658   -0.636698   -2.391080
O       0.144367   -1.133410   -2.226289
H      -0.097108    2.056354    1.016867
H      -0.345262    2.085437   -0.796152
H       1.533053    0.655387   -1.016791
H       0.013562   -1.213811    2.012339
H      -0.945505   -2.995837   -0.069247
H      -1.910601   -1.347429   -2.811995
H      -1.274313    0.378771   -2.776721
