17

C       0.048745    1.330073    0.325340
C       0.024767   -0.179210    0.186161
O       1.013128   -0.866433    0.246210
C      -1.363126   -0.788077    0.004050
O      -1.380689   -2.229126   -0.038056
C      -2.191606   -2.309843    1.143417
C      -1.385167   -2.255406    2.456396
O      -1.495143   -0.799957    2.497111
C      -2.252217   -0.779555    1.280848
H       1.073554    1.692196    0.234359
H      -0.591294    1.818432   -0.416696
H      -0.334827    1.591781    1.318655
H      -1.848928   -0.360231   -0.884715
H      -3.024584   -3.006667    1.046343
H      -1.869336   -2.704903    3.330638
H      -0.349796   -2.595239    2.366110
H      -3.129287   -0.132375    1.322847
