27

C      -0.022465    1.553442   -0.129251
C       0.040445    0.025968   -0.046530
C       0.687529   -0.482508    1.246889
C       0.746029   -2.012333    1.328758
C       1.471848   -2.566817    2.567456
C       0.769381   -2.213860    3.885419
C       1.638535   -4.081443    2.433866
O       2.431134   -4.561556    3.499664
C       2.609126   -5.955353    3.467464
H       0.979575    1.994214   -0.080257
H      -0.486426    1.885501   -1.063388
H      -0.606096    1.971255    0.698783
H      -0.973547   -0.387498   -0.130116
H       0.597484   -0.365454   -0.908260
H       1.705633   -0.075867    1.326606
H       0.132558   -0.080371    2.103757
H      -0.276835   -2.415473    1.299020
H       1.246135   -2.390873    0.426251
H       2.485227   -2.141649    2.591438
H       1.276179   -2.696059    4.724227
H       0.761646   -1.135413    4.065575
H      -0.272199   -2.559272    3.875304
H       0.649348   -4.575152    2.441701
H       2.114101   -4.328777    1.468862
H       3.112342   -6.283305    2.543370
H       3.232534   -6.227875    4.322885
H       1.650233   -6.493559    3.541071
