19

C      -0.018566    1.586047    0.053226
C       0.054493    0.059636   -0.013117
N       0.794904   -0.385717   -1.209151
C       1.708726   -1.208986   -0.853135
N       2.497640   -1.909187   -1.734986
C       1.831332   -1.435611    0.638096
C       2.402077   -2.685234    1.242728
O       2.144337   -0.181389    1.287686
C       0.768849   -0.576703    1.178065
H       0.984132    2.000464    0.185950
H      -0.439155    1.981220   -0.874649
H      -0.646649    1.913110    0.888410
H      -0.966709   -0.345142   -0.067018
H       2.445111   -1.573785   -2.687078
H       3.435944   -2.120221   -1.430126
H       3.469255   -2.785374    1.012441
H       2.299849   -2.659800    2.330054
H       1.890777   -3.572628    0.857377
H       0.263056   -0.776598    2.119627
