23

C      -0.375679    1.476572   -0.014529
C       0.187502    0.051983    0.065666
C       0.793269   -0.447767   -1.237090
C      -0.146060   -1.040396   -2.258419
C       0.792548   -1.943568   -1.486791
C       1.987810   -2.588393   -2.185587
O       3.146101   -1.770598   -2.226112
C       2.860257   -0.478033   -2.721440
C       2.019229    0.319491   -1.719608
H       0.405825    2.207259   -0.245508
H      -1.143123    1.553293   -0.792240
H      -0.830411    1.770798    0.936455
H       0.948908    0.003641    0.856233
H      -0.612843   -0.634167    0.369717
H      -1.204163   -1.073581   -2.018590
H       0.060318   -0.889185   -3.314282
H       0.337753   -2.557511   -0.714931
H       2.288720   -3.494114   -1.651663
H       1.713507   -2.884862   -3.212712
H       3.823384    0.014218   -2.885037
H       2.353813   -0.544270   -3.699984
H       1.733846    1.281759   -2.162816
H       2.652686    0.541606   -0.851241
