13

O      -0.321187    0.380944    0.750045
C       0.276086    0.827422   -0.187945
C       1.372885    1.864546   -0.070318
N       2.339735    1.798543   -1.191105
C       1.447609    2.948710   -1.140910
C       0.456191    3.067791   -2.185066
N      -0.345663    3.192841   -3.007871
C       1.824487    2.214728    1.245734
C       2.228591    2.496256    2.341397
H       0.090205    0.514853   -1.235131
H       3.267572    2.054999   -0.861876
H       1.830997    3.900576   -0.784378
H       2.571490    2.738781    3.317536
