15

C       0.158006    1.624717    0.171643
O       1.576479    1.359556    0.193241
C       1.366343   -0.062806    0.187051
C      -0.165387    0.124188    0.002195
C      -1.059165   -0.534257    0.989242
N      -1.660315    0.106857    1.957776
O      -2.368259   -0.898697    2.629897
C      -2.104598   -2.031025    1.978985
N      -1.314830   -1.894809    0.963869
H      -0.195715    2.063364    1.110447
H      -0.126732    2.271441   -0.664969
H       1.890751   -0.559250   -0.636394
H       1.655851   -0.531296    1.136107
H      -0.492743   -0.144636   -1.004314
H      -2.567204   -2.932907    2.352761
