19

C       0.052030    1.497909   -0.216940
O       1.473782    1.492763    0.130541
C       1.284362    0.250759    0.814723
C       0.842698    0.298245    2.297934
C       0.237155   -1.117628    2.205838
C      -0.871537   -0.827253    1.099708
C      -0.051238   -0.021446    0.077646
C       1.432433   -1.854433    1.592857
C       2.111071   -1.007367    0.800023
H      -0.519152    2.151772    0.453892
H      -0.100326    1.811661   -1.253144
H       1.688581    0.373011    2.983624
H       0.110706    1.081192    2.515934
H      -0.164354   -1.561739    3.117047
H      -1.296715   -1.737761    0.672363
H      -1.687309   -0.259120    1.556848
H       0.113161   -0.575174   -0.847512
H       1.629891   -2.910615    1.727560
H       2.946394   -1.219755    0.146025
