19

C      -0.113839    1.636251    0.019130
C      -0.007582    0.115681    0.027563
C       1.139642   -0.452543   -0.876080
C       2.054504   -0.576191    0.382176
C       0.767753   -0.466839    1.258336
C       2.889933   -1.750215    0.519882
C       3.562497   -2.741321    0.630428
C      -1.344065   -0.544320   -0.209890
O      -2.386046    0.032547   -0.387744
H       0.861604    2.100887    0.193312
H      -0.498032    1.991936   -0.941017
H      -0.802644    1.980257    0.795789
H       0.895962   -1.438175   -1.281973
H       1.484150    0.193037   -1.686492
H       2.663809    0.326100    0.494365
H       0.816397    0.167252    2.145916
H       0.403439   -1.457148    1.545006
H       4.162905   -3.611524    0.729215
H      -1.300186   -1.660161   -0.209711
