21

C      -0.090384    1.608982    0.143607
C       0.026821    0.100212   -0.047031
O       1.127499   -0.393884   -0.189773
C      -1.214117   -0.743015   -0.022374
C      -2.457154   -0.165688    0.653730
C      -2.408853   -0.227520   -0.835519
C      -1.081104   -2.245368    0.034268
C      -0.069853   -3.061072   -0.735172
C       0.003302   -2.992280    0.771931
H       0.829626    2.069625   -0.217767
H      -0.950959    2.056592   -0.358579
H      -0.186020    1.828188    1.213554
H      -3.080753   -0.877696    1.182680
H      -2.386531    0.802104    1.134725
H      -2.301050    0.692783   -1.396853
H      -2.986831   -0.990145   -1.345474
H      -2.061853   -2.711740    0.101178
H      -0.417863   -3.978586   -1.198020
H       0.699893   -2.532396   -1.279890
H       0.822003   -2.421779    1.189425
H      -0.292015   -3.861214    1.350462
