18

C       0.135158    1.521434   -0.113830
C      -0.046188    0.001641    0.068732
C       0.658246   -0.524718    1.280384
C       0.127038   -0.968872    2.432238
C       1.198966   -1.395052    3.360930
O       1.104358   -1.924082    4.436404
N       2.476205   -1.078421    2.731463
C       2.763073   -1.948742    1.575896
C       2.147459   -0.597837    1.388673
H       1.189873    1.790562   -0.224652
H      -0.392298    1.861925   -1.009222
H      -0.262518    2.066947    0.746705
H      -1.112889   -0.233156    0.138871
H       0.337878   -0.512340   -0.822086
H      -0.922227   -1.094505    2.664243
H       3.817861   -2.095831    1.361241
H       2.127446   -2.818023    1.426334
H       2.756819    0.211095    0.995593
