21

C      -0.426954    1.456171    0.082053
C      -0.113539   -0.036524    0.083760
C       1.015987   -0.458029   -0.902479
C       2.010461   -0.568484    0.290945
C       3.139844   -1.634005    0.385172
C       4.220908   -0.517501    0.518869
C       3.087472    0.516214    0.423726
O       3.049482    1.715205    0.444025
C       0.793884   -0.502202    1.260997
H       0.489657    2.045819    0.188191
H      -0.916339    1.752305   -0.852472
H      -1.097174    1.716361    0.908874
H      -1.037581   -0.611829   -0.022844
H       0.840917   -1.433881   -1.364845
H       1.276830    0.262647   -1.682780
H       3.059924   -2.289521    1.255516
H       3.241049   -2.253501   -0.509016
H       4.767601   -0.485873    1.465955
H       4.948323   -0.449931   -0.295470
H       0.887819    0.185262    2.106487
H       0.532613   -1.495208    1.638350
