18

C      -0.096382    1.584491   -0.006094
C       0.001673    0.048080    0.011177
C       0.810862   -0.514932   -1.155719
C       1.850498   -1.264930   -0.743992
C       1.860797   -1.302204    0.713054
C       2.529845   -1.800851    1.805414
N       1.858924   -1.336854    2.918356
C       0.778341   -0.555868    2.552392
C       0.760007   -0.521794    1.184044
H       0.900005    2.034110    0.032546
H      -0.596686    1.935312   -0.914991
H      -0.667767    1.947409    0.854277
H      -1.020886   -0.356639   -0.030229
H       0.551878   -0.304826   -2.186840
H       2.564006   -1.762774   -1.389153
H       3.398890   -2.430483    1.906522
H       2.120497   -1.538974    3.867031
H       0.144004   -0.113928    3.304268
