16

C       0.136495    1.451978   -0.043551
C      -0.062564   -0.017214    0.002386
C      -1.144552   -0.832921    0.133586
N      -2.488809   -0.474038    0.336030
C      -0.659842   -2.191310    0.112331
C       0.691686   -2.093815   -0.020902
N       1.719027   -3.029188   -0.024555
O       1.084165   -0.806294   -0.083775
H       0.638225    1.844460    0.851398
H       0.735833    1.755047   -0.911198
H      -0.830724    1.958812   -0.120499
H      -2.672471    0.493115    0.099763
H      -3.122979   -1.062402   -0.190936
H      -1.243182   -3.093745    0.203960
H       1.412035   -3.943911   -0.325086
H       2.514926   -2.723139   -0.570316
