12

C      -0.018139    1.486712    0.010218
C       0.002006    0.036887    0.002216
C       0.018495   -1.172989   -0.004454
C       0.036118   -2.530343   -0.011907
C       0.051836   -3.737989   -0.018413
C       0.072351   -5.195984   -0.026473
F      -1.168926   -5.701956   -0.017577
F       0.693055   -5.669296   -1.116200
F       0.713790   -5.681116    1.045962
H       0.999145    1.893092    0.002611
H      -0.543461    1.876566   -0.868485
H      -0.526373    1.866986    0.903057
