14

N       0.000558    1.365634    0.010376
C       0.039582    0.103828    0.003504
N       1.150864   -0.758137   -0.007495
C       0.842609   -2.100297   -0.013252
O       1.613268   -3.024455   -0.022761
C      -0.683352   -2.157669   -0.004879
N      -1.080415   -0.752051    0.005482
C      -2.418237   -0.378618    0.018027
O      -2.854513    0.738360    0.028301
H       0.936846    1.766215    0.007251
H       2.100866   -0.420678   -0.011334
H      -1.038124   -2.689084   -0.894177
H      -1.028214   -2.699380    0.882077
H      -3.058282   -1.284961    0.017275
