14

C      -0.171108    1.286534   -0.340919
C       1.250473    1.015197    0.011447
N       0.253313   -0.046011    0.094177
C      -0.142849   -0.505441    1.355517
C       0.600767   -0.786918    2.462590
O      -0.182796   -1.299380    3.431559
N      -1.489296   -1.361488    2.973648
C      -1.457105   -0.897866    1.749890
H      -0.750352    1.884552    0.358507
H      -0.476328    1.358412   -1.380056
H       1.997630    0.893726   -0.766551
H       1.616744    1.437385    0.944774
H       1.649623   -0.698558    2.694288
H      -2.369339   -0.851604    1.172202
