11

N      -0.018744    1.232460   -0.229782
C      -0.002896    0.008209    0.005899
O       1.015821   -0.859529    0.328897
C       0.102422   -1.988455    0.452788
C      -1.082410   -1.079558    0.025938
C      -2.179294   -0.919968    0.962799
N      -3.045938   -0.815656    1.719448
H       0.908515    1.652972   -0.158234
H       0.360788   -2.787822   -0.243447
H       0.062864   -2.356196    1.479152
H      -1.468995   -1.297841   -0.972555
