17

O       0.177319    1.274243   -0.155482
C      -0.107469   -0.107945   -0.050057
C       0.670366   -0.733762    1.110738
O       0.205958   -0.162888    2.335396
C      -1.166518   -0.397292    2.511982
O      -1.946173    0.191190    1.498213
C      -1.610802   -0.331645    0.217190
C      -2.470000    0.381661   -0.816268
O      -2.493516    0.060373   -1.973774
H       0.044541    1.645498    0.725894
H       0.162481   -0.566635   -1.005527
H       0.546965   -1.828203    1.125856
H       1.732972   -0.493548    1.036426
H      -1.360965   -1.485537    2.545552
H      -1.457456    0.072460    3.452899
H      -1.836997   -1.410229    0.167365
H      -3.072682    1.220549   -0.408472
