18

C      -0.139094    1.473931    0.027899
C      -0.010888   -0.039384    0.038422
C      -1.277326   -0.759056   -0.379324
N       1.283381   -0.561603   -0.345587
C       0.933755   -0.682745    1.082747
C       1.680806    0.199279    2.033328
O       1.552913    0.140603    3.231805
C       0.602984   -2.037188    1.614873
O       0.412506   -3.000296    0.906228
H       0.819666    1.966686    0.192856
H      -0.516772    1.796580   -0.948407
H      -0.848746    1.811694    0.789532
H      -1.499581   -0.500226   -1.421044
H      -1.185396   -1.842412   -0.307048
H      -2.127587   -0.432517    0.227810
H       1.181537   -1.494794   -0.749732
H       2.378755    0.911154    1.546161
H       0.576901   -2.102361    2.717387
