25

C       0.125357    1.615978    0.072862
C       0.195435    0.086787    0.074150
C       0.546325   -0.499468   -1.302910
C       0.641642   -2.001839   -1.320864
C       1.893222   -2.737277   -0.913261
C       1.364925   -2.923550   -2.308998
C       0.195027   -3.911825   -2.292302
C      -0.571041   -2.961981   -1.307059
C      -1.075682   -3.526743    0.016448
H       1.084675    2.055740   -0.222912
H      -0.632550    1.977870   -0.631108
H      -0.127900    2.006367    1.063603
H       0.939648   -0.250827    0.806234
H      -0.766455   -0.322295    0.408436
H      -0.206079   -0.171299   -2.034822
H       1.502418   -0.074934   -1.639625
H       2.778462   -2.113578   -0.829331
H       1.868907   -3.560635   -0.202697
H       1.950007   -2.652644   -3.180567
H      -0.310825   -4.018884   -3.254543
H       0.429353   -4.912517   -1.910823
H      -1.405193   -2.489508   -1.838159
H      -0.269997   -3.998265    0.588830
H      -1.515113   -2.744085    0.644481
H      -1.846693   -4.286954   -0.153691
