16

O      -0.155468    1.361090   -0.020007
N       0.011545   -0.035374   -0.029543
C      -1.114512   -0.636684   -0.010330
C      -1.206256   -2.170569   -0.001403
C      -2.667056   -2.391223   -0.427651
O      -3.663182   -3.031024    0.446415
C      -4.524463   -1.849632    0.368476
C      -3.331714   -1.087183   -0.144710
C      -2.482637   -0.090625    0.119812
H       0.755234    1.673130   -0.001999
H      -0.461980   -2.647105   -0.641420
H      -1.070373   -2.537629    1.022257
H      -2.761816   -2.800368   -1.441240
H      -5.345401   -2.005884   -0.343054
H      -4.927160   -1.551770    1.341573
H      -2.688202    0.901265    0.495856
