14

N      -0.066709    1.280517   -0.044041
C      -0.025837    0.025592   -0.021509
O       1.091126   -0.779045    0.022001
C       0.570768   -2.129408    0.064255
C       0.043166   -2.405265    1.479613
C      -1.224478   -1.526082    1.437377
O      -2.039930   -1.338823    2.290822
C      -1.191277   -0.952527   -0.005995
O      -0.607416   -2.064377   -0.713701
H       0.871826    1.683157   -0.029308
H       1.299831   -2.811793   -0.365632
H      -0.222139   -3.458397    1.606037
H       0.717399   -2.104665    2.283387
H      -2.129495   -0.615793   -0.432195
