15

N      -0.090923    1.449036   -0.033323
C      -0.069762    0.001725   -0.034793
C       1.035567   -0.578085    0.686524
N       1.932610   -1.039774    1.252732
C      -1.353693   -0.820077    0.063976
C      -2.457485   -0.122430   -0.733655
N      -1.541686   -0.004048   -1.923924
C      -0.544046   -0.830634   -1.222628
H       0.862569    1.796933   -0.070243
H      -0.539536    1.737835   -0.903151
H      -1.492930   -1.566504    0.834693
H      -3.301827   -0.791587   -0.919402
H      -2.824222    0.836322   -0.355137
H      -1.919547   -0.471962   -2.739088
H       0.053097   -1.589087   -1.714723
