20

C      -0.061446    1.656353    0.239818
C      -0.006815    0.144420    0.090724
O       0.980960   -0.286661   -0.909038
C       1.597894   -1.152977    0.052237
C       2.189817   -0.376210    1.182061
C       0.706376   -0.687604    1.172623
C      -1.376561   -0.412984   -0.257444
C      -1.844422   -0.427348   -1.662782
N      -1.525483   -1.688018   -0.963294
H       0.898377    2.065500    0.561967
H      -0.331411    2.118035   -0.714599
H      -0.820711    1.934321    0.978493
H       1.916440   -2.133580   -0.281386
H       2.761930   -0.960672    1.896427
H       2.562249    0.629267    1.011959
H       0.207748   -1.245418    1.953718
H      -2.109331   -0.259713    0.534147
H      -2.895361   -0.275650   -1.890798
H      -1.148671   -0.083506   -2.422850
H      -0.602444   -1.983337   -1.276195
