17

O      -0.111285    1.489020    0.153161
C      -0.089402    0.104015    0.047010
C      -0.444416   -0.770713    1.200861
O      -1.417223   -0.088578    2.002259
C      -2.379579   -0.137613    0.906380
C      -1.348395   -0.757145   -0.034193
C      -1.636716   -1.772519   -1.106661
C      -2.296283   -1.129956   -2.316539
O      -3.324566   -1.508025   -2.813313
H      -0.422324    1.684501    1.048121
H       0.724401   -0.250286   -0.581104
H       0.164724   -1.529378    1.680479
H      -3.204155   -0.811615    1.160550
H      -2.766942    0.853828    0.648339
H      -0.691033   -2.217599   -1.447267
H      -2.280214   -2.583412   -0.749695
H      -1.747204   -0.249049   -2.720311
