17

C      -0.000121    1.525392   -0.041861
N       1.342111    2.152014   -0.053675
C       2.227200    1.391351   -0.833975
C       2.108343    0.042798   -1.121808
C       3.242344   -0.308419   -1.917884
C       4.003261    0.824469   -2.072363
N       3.375233    1.860308   -1.401987
C       1.013886   -0.684884   -0.507147
C       0.018755    0.010900    0.066852
H      -0.569420    1.976376    0.775414
H      -0.503353    1.819770   -0.976567
H       1.691983    2.261235    0.896685
H       3.471190   -1.281017   -2.327112
H       4.923270    0.993819   -2.607099
H       3.670751    2.821231   -1.388145
H       1.035597   -1.770257   -0.479226
H      -0.802090   -0.481311    0.577909
