10

N      -0.052227    1.257194    0.209957
C      -0.059548    0.024282   -0.084000
N      -1.248602   -0.702756   -0.197249
C      -1.122970   -1.963493   -0.016193
N       0.090482   -2.554223    0.221328
N       1.249185   -1.905068   -0.178651
N       1.178221   -0.673297   -0.361318
H       0.913795    1.591633    0.205062
H      -1.982236   -2.630366   -0.072670
H       0.197399   -3.557363    0.231500
