14

N      -0.055023    1.351419    0.008987
C       0.056298   -0.007959    0.001307
O       1.119253   -0.598037   -0.011448
C      -1.221212   -0.704175    0.009767
C      -2.245936   -1.352092    0.016123
C      -3.399467   -2.065778    0.023358
C      -4.428407   -2.703142    0.029808
C      -5.685514   -3.435111    0.037969
O      -5.428502   -4.830541    0.027889
H       0.789299    1.899793    0.003805
H      -0.948832    1.810327    0.019487
H      -6.259955   -3.134307    0.930049
H      -6.277066   -3.124672   -0.839504
H      -6.279581   -5.280824    0.033223
