20

C       0.294066    1.613898    0.578729
C       1.326703    0.725750   -0.007004
C       2.238142   -0.038017    0.944130
C       1.296863   -0.881361    1.840773
C       1.045908   -0.385100    3.283839
O      -0.220474    0.264906    3.287075
C      -1.035906   -0.428136    2.348398
C      -0.114670   -0.772282    1.171541
N      -0.065879    0.258098    0.115253
H       0.318895    1.809188    1.646250
H      -0.133827    2.411894   -0.021787
H       1.685465    0.908961   -1.016400
H       2.901635   -0.692105    0.370131
H       2.879505    0.628707    1.530307
H       1.641553   -1.917006    1.869759
H       1.032177   -1.236708    3.982251
H       1.789595    0.334672    3.638449
H      -1.445733   -1.347804    2.796977
H      -1.864359    0.226032    2.067212
H      -0.416098   -1.706611    0.690368
