13

N       0.073649    1.318759   -0.022646
C      -0.003119   -0.032081    0.026991
N      -1.179999   -0.588869    0.074797
O      -1.214618   -1.988932    0.183642
C      -0.085077   -2.692337    0.224237
C       1.155069   -2.168888    0.156061
C       1.302255   -0.744664    0.032011
N       2.363813   -0.026434   -0.081813
H       0.984307    1.686628   -0.254563
H      -0.756388    1.848334   -0.226541
H      -0.300488   -3.751607    0.316403
H       2.021572   -2.817736    0.188699
H       3.202887   -0.607882   -0.077564
