20

C       0.579037    1.447788    0.459081
O       0.844461    0.069893    0.337530
C      -0.241342   -0.738553    0.725396
C       0.199160   -2.188904    0.570973
C       1.292843   -2.634189    1.575936
N       0.628488   -3.612638    2.448978
C      -0.546140   -3.765694    1.993538
C      -1.598207   -4.675105    2.528971
O      -0.921376   -3.043686    0.893105
H       0.351195    1.728749    1.499149
H       1.475171    1.982713    0.136028
H      -0.267971    1.756491   -0.173302
H      -0.525155   -0.547692    1.774901
H      -1.127843   -0.543978    0.100395
H       0.477696   -2.372053   -0.470595
H       2.151809   -3.100129    1.081831
H       1.675567   -1.790151    2.158692
H      -1.214245   -5.207950    3.398049
H      -2.488494   -4.103693    2.809865
H      -1.902679   -5.393850    1.761599
