17

N       0.827001   -0.167066   -0.313239
C      -0.329959    0.282138    0.227622
O      -0.479592    1.354924    0.771704
C      -1.512891   -0.714614    0.064505
C      -2.242313   -0.412195   -1.164589
C      -2.843042   -0.165311   -2.174979
N      -1.020844   -2.099027    0.040903
C      -0.984081   -2.782090    1.336040
C      -2.008609   -3.137982    0.317053
H       1.651295    0.406234   -0.251491
H       0.871729   -1.105324   -0.676748
H      -2.172222   -0.519923    0.925642
H      -3.374096    0.061569   -3.066282
H      -0.124405   -3.423788    1.502668
H      -1.316703   -2.227207    2.210883
H      -3.032916   -2.823285    0.502960
H      -1.910367   -4.044353   -0.272276
