14

O      -0.242309    1.398214    0.004276
C      -0.024301    0.059301    0.009700
C       0.091967   -1.029320   -0.995322
O       1.218007   -1.651669   -0.420218
C       0.904719   -0.964001    0.823510
C      -0.371804   -1.678426    1.325689
C      -1.057642   -1.061285    0.105459
C      -2.431132   -1.034363   -0.251521
N      -3.550890   -1.013632   -0.546653
H       0.459832    1.832099   -0.495981
H      -0.113526   -1.120039   -2.053203
H       1.770510   -0.769188    1.450421
H      -0.315814   -2.767163    1.394958
H      -0.750068   -1.241898    2.252144
