20

O      -0.247953    1.261705   -0.422552
C      -0.075670   -0.105865   -0.103125
C       0.373045   -0.369733    1.372829
C      -0.998837   -0.992637    1.663488
C      -1.438223   -0.724836    0.211258
C      -1.279360   -2.125659    0.721358
N      -0.228494   -2.981394    0.238861
C      -0.219366   -4.348771    0.748941
C      -0.632121   -4.063914   -0.653292
H       0.626283    1.649544   -0.531733
H       0.511008   -0.623160   -0.872744
H       1.244165   -1.010934    1.529981
H       0.508032    0.584838    1.886463
H      -1.559778   -0.874960    2.583443
H      -2.374213   -0.346414   -0.181874
H      -2.236853   -2.620847    0.916277
H       0.759308   -4.768539    0.963542
H      -1.001397   -4.633608    1.451059
H      -1.690451   -4.158198   -0.890971
H       0.039921   -4.271498   -1.481135
