17

O      -0.677357    1.385747    0.879200
C       0.053548    1.119898   -0.041389
C       1.391638    1.793056   -0.270499
C       1.283419    2.895931   -1.351827
C       0.528668    4.160693   -0.834844
O       1.770894    4.851860   -0.607376
C       2.510019    3.858566   -1.334680
C       0.885431    2.366555   -2.643265
C       0.562304    1.931937   -3.717013
H      -0.237129    0.369929   -0.808044
H       1.717953    2.249662    0.667925
H       2.128299    1.048256   -0.593091
H      -0.083847    4.649182   -1.601694
H      -0.053089    4.028168    0.082526
H       3.392071    3.507354   -0.787762
H       2.804710    4.203896   -2.333343
H       0.271754    1.552471   -4.665700
