21

C      -0.547044    1.209035    0.184600
C      -0.041167   -0.238572    0.259756
C      -1.188514   -1.203121    0.599852
C       0.625591   -0.662296   -1.055003
C       2.026331   -0.146573   -1.497153
C       2.887480    0.668592   -0.556190
O       2.504866   -1.540010   -1.563645
C       1.310296   -2.031210   -1.111910
O       1.036533   -3.166591   -0.878044
H       0.256310    1.919821   -0.030393
H      -1.305634    1.313626   -0.600081
H      -1.008015    1.504819    1.132335
H       0.703265   -0.304747    1.063386
H      -1.979656   -1.146262   -0.157375
H      -0.840279   -2.237502    0.642228
H      -1.633614   -0.942342    1.565152
H      -0.103595   -0.579283   -1.869676
H       2.038877    0.277171   -2.505309
H       2.877614    0.258534    0.456995
H       3.921635    0.665803   -0.912897
H       2.546010    1.707070   -0.518642
