16

C       0.567981    1.434630    0.384874
C       0.077409    0.046706    0.184641
N      -0.714903   -0.646390    0.941409
C      -0.848100   -1.869435    0.289043
C      -0.106186   -1.845458   -0.843637
O       0.492398   -0.617248   -0.925166
C      -1.678910   -2.960221    0.832290
C      -2.859543   -3.476305    0.114327
O      -1.627509   -4.196492    0.118121
H       1.661455    1.462846    0.430204
H       0.255388    2.085587   -0.438170
H       0.161458    1.821826    1.319231
H       0.106595   -2.550900   -1.626438
H      -1.666504   -3.049640    1.918239
H      -3.672039   -3.936004    0.675419
H      -3.135365   -3.025506   -0.837217
