14

N      -0.066851    1.261940    0.523254
C      -0.021627    0.065314    0.150243
C      -1.188357   -0.806460   -0.245170
C      -0.610156   -2.234043   -0.167671
C      -1.108135   -3.179052   -1.150004
C      -1.538845   -3.942296   -1.970195
C       0.910374   -1.993783   -0.255503
O       1.782824   -2.768253   -0.475995
O       1.155811   -0.664546    0.020164
H       0.866882    1.628032    0.715287
H      -2.048328   -0.634081    0.400853
H      -1.483277   -0.569975   -1.271892
H      -0.772404   -2.639602    0.841332
H      -1.908197   -4.626078   -2.694356
