11

O      -0.026723   -0.048360   -0.003276
C       0.004752    1.152369    0.005907
C       1.253825    1.964324   -0.000185
N       2.447110    1.399629   -0.017021
O       3.353893    2.422559   -0.017887
C       2.693214    3.606021   -0.001444
C       1.350363    3.382984    0.010547
C       3.464343    4.792533    0.000405
N       4.076703    5.774046    0.002202
H      -0.919347    1.768508    0.019991
H       0.558980    4.113566    0.024686
