20

C       0.031346    1.481695    0.056313
C      -0.010317   -0.032716   -0.050708
O      -1.357782   -0.450993    0.053812
C      -1.514127   -1.832609   -0.033247
C      -2.990938   -2.214182    0.053541
O      -3.870319   -1.390032    0.066668
C      -3.262091   -3.713297    0.121596
C      -4.740261   -4.065190   -0.030155
H       1.061915    1.840606   -0.021776
H      -0.559204    1.937568   -0.743015
H      -0.380754    1.808745    1.014854
H       0.417232   -0.366881   -1.011696
H       0.594930   -0.495873    0.747528
H      -1.118891   -2.232089   -0.987092
H      -0.963077   -2.363146    0.765818
H      -2.648941   -4.218180   -0.637025
H      -2.873996   -4.070538    1.086395
H      -4.893991   -5.143216    0.068727
H      -5.337881   -3.555055    0.728613
H      -5.118928   -3.750926   -1.006540
