14

C      -0.022550    1.422386   -0.033352
N      -0.026111   -0.033425    0.005063
N      -0.076458   -0.639855   -1.227935
C      -0.081972   -1.908483   -1.257009
O      -0.043246   -2.747614   -0.193637
C       0.008775   -2.215669    1.088309
N       0.046102   -2.951459    2.106373
C       0.018659   -0.705952    1.208323
O       0.062601   -0.151622    2.282733
H       0.847408    1.776126   -0.593100
H      -0.931013    1.782280   -0.523708
H       0.018741    1.780947    0.993021
H      -0.120729   -2.435041   -2.200851
H       0.032356   -3.938471    1.842353
