20

C      -0.074417    1.342925    1.211331
C      -0.125162    0.322071    0.092024
C       1.103453    0.139661   -0.784790
C       0.757729   -0.919648    0.211879
C      -1.494870    0.113976   -0.475340
O      -2.489817    0.543214    0.069710
N      -1.565319   -0.698216   -1.632736
C      -1.446402   -0.095884   -2.965279
C      -2.753363   -0.604898   -2.460518
H       0.937412    1.412782    1.621474
H      -0.367555    2.335429    0.854731
H      -0.760474    1.069818    2.016875
H       0.968166   -0.087147   -1.834293
H       1.938838    0.797533   -0.570675
H       1.350812   -1.002051    1.116304
H       0.353218   -1.851569   -0.162771
H      -1.317779    0.982491   -3.018183
H      -0.871189   -0.664256   -3.691164
H      -3.138662   -1.551905   -2.825880
H      -3.499172    0.120832   -2.150858
