22

C      -0.088477    1.636721   -0.310754
C      -0.044596    0.165946    0.112413
C      -1.395413   -0.541025   -0.039678
C      -1.347965   -2.008305    0.385711
N      -2.672279   -2.615986    0.258489
C      -2.991618   -3.245810   -1.009666
C      -2.766191   -4.087160    0.213000
C      -1.603764   -4.927866    0.308811
C      -0.648248   -5.648872    0.431064
H       0.887001    2.117395   -0.187175
H      -0.378791    1.737779   -1.362455
H      -0.815078    2.198407    0.286668
H       0.712931   -0.363534   -0.480465
H       0.286198    0.095768    1.157204
H      -2.159216   -0.025055    0.554660
H      -1.726417   -0.479694   -1.085394
H      -0.585393   -2.547650   -0.199508
H      -1.050863   -2.083704    1.438539
H      -4.002111   -3.101151   -1.382532
H      -2.216256   -3.286873   -1.773285
H      -3.639909   -4.473672    0.733233
H       0.196232   -6.285233    0.528171
