17

O       0.070877    1.215465    0.478072
C       0.032960   -0.063384   -0.084290
C      -0.745849   -0.274326   -1.367545
C      -1.300883   -0.746746   -0.048632
O      -1.253123   -2.122718    0.197620
C      -0.592468   -2.403462    1.422514
C       0.838992   -1.855473    1.459444
O       1.587517   -2.109257    2.369809
C       1.204612   -0.982416    0.263644
H       0.692796    1.749293   -0.029249
H      -1.214799    0.599855   -1.804900
H      -0.405278   -1.029662   -2.067267
H      -2.146806   -0.217119    0.387926
H      -1.143473   -2.000194    2.286527
H      -0.557731   -3.491315    1.529388
H       1.441153   -1.647216   -0.575505
H       2.102427   -0.409556    0.504496
