21

C      -0.132576    1.575545    0.006605
C      -0.067461    0.049769    0.001465
C      -1.425998   -0.548207   -0.341585
O      -1.762960   -0.147243   -1.666838
C       1.164572   -0.608432   -0.677025
C       2.107331   -0.278671    0.535504
C       2.613842   -1.727736    0.634786
C       1.127426   -1.866612    0.262537
C       0.709659   -0.641739    1.153731
H       0.842912    2.027793    0.203273
H      -0.494269    1.942414   -0.957650
H      -0.827007    1.931490    0.777512
H      -1.397063   -1.644424   -0.263017
H      -2.176574   -0.186757    0.381377
H      -2.641744   -0.481268   -1.867543
H       1.446994   -0.602416   -1.731165
H       2.662103    0.646415    0.692045
H       3.341901   -2.047421   -0.118095
H       2.909107   -2.080969    1.628493
H       0.553438   -2.779575    0.102784
H       0.471411   -0.673878    2.220037
