21

C      -0.062817    1.575467   -0.092276
C      -0.002689    0.058432    0.106175
C      -1.380595   -0.595560    0.080496
O      -2.039341   -0.366771   -1.189018
C      -2.311374   -1.678570   -1.634905
C      -2.786466   -2.574367   -0.452217
C      -2.104556   -3.787980   -1.121393
C      -1.110963   -2.625473   -1.340461
C      -1.399217   -2.121865    0.118487
H       0.938902    2.015620   -0.089138
H      -0.541709    1.815549   -1.045208
H      -0.641840    2.055960    0.704424
H       0.619529   -0.396194   -0.674065
H       0.471787   -0.178211    1.067762
H      -2.007296   -0.165330    0.876148
H      -2.820402   -1.669132   -2.598387
H      -3.747364   -2.532167    0.062378
H      -1.775076   -4.587330   -0.453127
H      -2.588618   -4.199472   -2.012212
H      -0.146729   -2.647783   -1.849238
H      -0.962893   -2.637645    0.974698
