21

C      -0.526563    1.776783    0.508153
N      -0.617596    0.373105    0.854947
C      -0.227090   -0.466308   -0.007365
N      -0.284274   -1.828426    0.256523
C       0.127125   -2.803406   -0.633403
O       0.562843   -2.531437   -1.734534
C       0.024129   -4.238218   -0.116991
C      -0.653082   -5.121930   -1.172967
C       1.440912   -4.742842    0.215222
H       0.101637    2.295716    1.241515
H      -0.114846    1.962198   -0.496247
H      -1.521312    2.233952    0.564888
H       0.176130   -0.240965   -0.998722
H      -0.648105   -2.088465    1.161443
H      -0.576866   -4.249152    0.801212
H      -0.105814   -5.059401   -2.116791
H      -0.670664   -6.165039   -0.843613
H      -1.683979   -4.805382   -1.359000
H       1.914261   -4.134313    0.992282
H       1.403133   -5.777245    0.569530
H       2.070868   -4.704094   -0.677998
