14

O       0.087961    1.322156    0.231285
C       0.074593   -0.013426   -0.002342
C       0.084141   -0.766723   -1.145431
C       0.063898   -2.143002   -0.705052
C       0.044489   -2.113733    0.683770
N       0.017959   -3.382466    1.148818
N       0.025220   -4.270606    0.107068
C       0.050136   -3.529106   -0.999210
N       0.044296   -0.818271    1.134012
H       0.111943    1.777273   -0.615998
H       0.100498   -0.382907   -2.153178
H       0.012104   -3.734125    2.088593
H       0.057328   -4.026229   -1.958034
H       0.063908   -0.468457    2.074892
