20

C      -0.066417    1.533556   -0.015834
C      -0.110479    0.024796    0.081939
C      -1.241324   -0.654652   -0.656843
O       1.180426   -0.622140   -0.060033
C       0.548194   -0.655230    1.205526
C       1.260405   -0.170866    2.474130
N       1.011546   -1.495674    3.157370
C      -0.450825   -1.656047    3.197807
C       0.243287   -1.949583    1.924131
H       0.786418    1.938141    0.534046
H       0.023496    1.846011   -1.062052
H      -0.983884    1.975909    0.387418
H      -1.186522   -0.431604   -1.728040
H      -1.198299   -1.738709   -0.530980
H      -2.210976   -0.300130   -0.290706
H       2.330668   -0.028492    2.310234
H       0.848272    0.690378    3.010906
H      -0.770481   -2.497692    3.804867
H      -1.081151   -0.771920    3.278332
H       0.352920   -2.945971    1.510022
