18

C      -0.126523    1.634088    0.097048
N       0.039694    0.198715   -0.091448
C       0.566895   -0.418150   -1.276801
C       1.315837   -0.512295    0.027513
C       2.585562    0.276926   -0.130049
O       3.502210    0.296477    0.652710
C       2.557003    1.000994   -1.484579
C       1.364759    0.419357   -2.278290
O       1.771122   -0.488664   -3.292754
H       0.598703    2.283826   -0.410669
H      -1.125489    1.905620   -0.258372
H      -0.080777    1.847479    1.168500
H       0.007738   -1.254319   -1.687989
H       1.326804   -1.375859    0.685058
H       2.502544    2.084584   -1.332193
H       3.497952    0.795821   -2.003574
H       0.736991    1.214124   -2.707654
H       2.220597    0.010873   -3.981429
