12

F       0.122048    0.076746    0.001899
C      -0.061912    1.376491    0.011217
C      -1.258749    1.979191    0.030624
C      -1.256772    3.417872    0.038146
C      -0.089763    4.089081    0.025829
F      -0.040186    5.414338    0.032113
C       1.200432    3.417477    0.004792
N       2.319699    4.001940   -0.007326
O       1.111260    2.012349   -0.001372
H      -2.167279    1.396767    0.039900
H      -2.189180    3.968845    0.053693
H       3.090027    3.334665   -0.021282
