19

O      -0.177820    1.443816   -0.151370
C      -0.023587    0.063392   -0.007365
C       1.129463   -0.646971   -0.761334
C       1.539901   -1.421942    0.526495
C       0.404928   -0.745230    1.336618
O       0.697105   -0.206285    2.591367
C      -0.911228   -1.480389    1.262075
C      -2.056077   -0.508551    1.279791
C      -1.317033   -0.714652   -0.011193
H       0.691811    1.856414   -0.129672
H       0.831836   -1.251965   -1.621895
H       1.899716    0.056100   -1.095865
H       1.499672   -2.513176    0.474083
H       2.533369   -1.140154    0.891492
H       1.550140    0.237850    2.546638
H      -1.042445   -2.537423    1.464094
H      -3.041771   -0.959773    1.322690
H      -1.963753    0.430376    1.814842
H      -1.794727   -1.117597   -0.897056
