15

O       0.091992    1.436526    0.218792
C       0.044318    0.027644    0.261394
C      -1.339039   -0.517056   -0.164785
C      -1.390390   -2.011077   -0.078111
C      -1.946363   -2.712188    0.993451
N      -1.931251   -4.034398    1.024491
N      -1.362466   -4.682971    0.008232
N      -0.834266   -4.035700   -1.005246
N      -0.839057   -2.708194   -1.071219
H       0.098469    1.711289   -0.703833
H       0.820688   -0.436318   -0.363017
H       0.246549   -0.251847    1.300902
H      -2.107211   -0.067292    0.471283
H      -1.531032   -0.221641   -1.201678
H      -2.417399   -2.209869    1.834726
