16

C      -0.089528    1.422239    0.001030
N      -0.121603   -0.033310    0.045450
C       0.616217   -0.643914    1.044486
C       1.295533   -0.162358    2.148041
N       1.783663   -1.224256    2.848353
N       1.461348   -2.327699    2.252250
N       0.734614   -1.991854    1.144104
C       0.199949   -3.010699    0.273423
H       0.922749    1.834061   -0.126231
H      -0.716461    1.765283   -0.824632
H      -0.505573    1.820756    0.931022
H      -0.001761   -0.459081   -0.864040
H       1.451444    0.853988    2.467948
H      -0.874922   -2.863974    0.128793
H       0.696495   -3.006951   -0.704146
H       0.377225   -3.972537    0.754628
