11

N      -0.012026    1.305246    0.009114
C      -0.035133    0.040743    0.002637
N      -1.233707   -0.695236    0.010115
C      -2.480574    0.001019    0.025646
O      -3.551823   -0.529506    0.033103
C      -1.132164   -2.103415    0.001682
O      -2.041380   -2.878497    0.006121
H       0.945312    1.649472    0.001888
H       0.842964   -0.613920   -0.009119
H      -2.306086    1.085836    0.029723
H      -0.067845   -2.412921   -0.010037
