25

C       0.109034    1.257445   -0.005621
C      -0.082912   -0.193733    0.449338
C      -1.493269   -0.699742    0.230666
C      -1.917669   -1.156200   -1.155781
C      -1.773751   -2.160193   -0.055355
O      -0.730500   -3.077695   -0.186194
C      -0.595292   -4.002475    0.893435
C       0.369133   -5.078411    0.408163
C      -0.120099   -3.338776    2.187898
H       1.136424    1.594407    0.166139
H      -0.108028    1.366748   -1.073288
H      -0.558719    1.935682    0.537419
H       0.613827   -0.850134   -0.082673
H       0.173291   -0.278065    1.513555
H      -2.254911   -0.183171    0.812091
H      -2.908849   -0.917337   -1.525110
H      -1.144417   -1.177737   -1.917392
H      -2.685193   -2.590590    0.362219
H      -1.581529   -4.462132    1.077539
H       1.353516   -4.642921    0.208893
H       0.484340   -5.862445    1.162375
H       0.002072   -5.531451   -0.516324
H      -0.037152   -4.084267    2.985554
H       0.861825   -2.877076    2.043675
H      -0.818776   -2.566575    2.520745
