19

O       0.026101    0.049441   -0.430724
C      -0.008529    1.214242   -0.094077
C      -1.315104    1.930936    0.209922
C      -1.220318    2.909843    1.392299
C       0.010610    3.773367    1.295230
C       1.104191    3.381771    0.640923
C       1.230748    2.059835   -0.015121
C       2.547587    1.292795    0.115602
C       2.198286    1.895314   -1.196041
H      -1.561304    2.504034   -0.695760
H      -2.096903    1.180338    0.345835
H      -2.121787    3.531580    1.423366
H      -1.212090    2.353823    2.341293
H      -0.005837    4.738815    1.792496
H       1.978558    4.027727    0.598862
H       3.320188    1.757857    0.717418
H       2.445446    0.218901    0.218806
H       1.869223    1.230234   -1.986062
H       2.718245    2.789449   -1.522557
