15

O       0.012496    0.029019    0.166033
C      -0.029496    1.217284   -0.014212
C      -1.286977    2.030042   -0.349892
O      -0.862037    3.338843   -0.717107
C       0.514835    3.474518   -0.506773
C       1.020217    3.397179    0.914681
C       0.143672    3.426216    2.046075
C      -0.582920    3.468153    3.003455
C       1.118035    2.179136   -0.042663
H      -1.822150    1.569020   -1.187394
H      -1.952426    2.063906    0.520366
H       0.987828    4.144850   -1.215040
H       1.988777    3.863870    1.074349
H      -1.224566    3.507755    3.848791
H       2.101045    1.811478   -0.304510
