19

O       0.307535    0.094216    0.092140
C       0.181038    1.261525   -0.098794
O      -0.899433    1.909157   -0.644953
C      -0.269522    3.219076   -0.460960
C       0.982924    2.547658    0.135600
C       1.371325    2.844630    1.586469
C       2.445834    1.905087    2.093069
C       3.902950    2.226222    1.864353
C       3.317998    2.303685    3.253927
H      -0.147893    3.727781   -1.419112
H      -0.855287    3.831584    0.228729
H       1.861044    2.598683   -0.514529
H       1.723214    3.882001    1.655939
H       0.478154    2.774494    2.221578
H       2.175152    0.855403    2.029850
H       4.581905    1.413218    1.633371
H       4.146981    3.161361    1.369408
H       3.170379    3.288837    3.685101
H       3.595200    1.542630    3.974603
