17

C      -0.221099    1.399043    0.068241
N       0.173494   -0.001971   -0.079878
C       0.773169   -0.561258    1.090926
C       0.155144   -1.651296    1.905149
O      -0.642861   -2.487990    1.071120
C       0.524907   -2.913517    0.315174
C       1.428273   -1.949123    1.085612
C       2.770764   -2.191352    1.480364
N       3.867551   -2.381832    1.800529
H       0.670755    2.015014    0.222795
H      -0.695709    1.732119   -0.858373
H      -0.917218    1.591354    0.900929
H      -0.636779   -0.562588   -0.326347
H       1.357971    0.148702    1.669327
H      -0.028973   -1.669414    2.973771
H       0.746030   -3.964966    0.516971
H       0.419958   -2.740437   -0.760440
