19

C       0.108577    1.480763    0.045689
C      -0.041531   -0.026348    0.041078
C      -1.506379   -0.492515    0.020989
O      -2.148644   -0.107082   -1.176824
O       0.610469   -0.563104   -1.128782
C       1.190719   -1.789025   -0.746670
C       2.510463   -1.694376   -0.012742
C       1.205008   -1.804638    0.744932
O       0.636178   -0.587695    1.164094
H       1.159453    1.751620   -0.071930
H      -0.475720    1.910319   -0.770437
H      -0.261636    1.882801    0.992204
H      -1.524208   -1.584127    0.165579
H      -2.055062   -0.034836    0.849421
H      -1.565335   -0.393869   -1.890696
H       0.939217   -2.635607   -1.375405
H       3.156479   -2.566502   -0.030034
H       3.010817   -0.732937   -0.006554
H       0.964204   -2.663444    1.360994
