18

C      -0.137936    1.549619    0.012360
C      -0.077003    0.096131   -0.017046
C      -0.030787   -1.107510   -0.050138
C       0.047776   -2.542584   -0.096749
C      -0.285216   -3.369926    1.132616
C      -1.202953   -3.380613   -0.062435
O       1.042351   -3.072137   -0.958266
C       2.325688   -2.827705   -0.602481
N       3.263504   -3.297337   -1.303003
H       0.556291    1.981924   -0.716418
H      -1.142364    1.910675   -0.234434
H       0.127288    1.944378    0.999301
H       0.331765   -4.245541    1.298955
H      -0.594560   -2.840372    2.025675
H      -2.150133   -2.859635    0.000315
H      -1.192258   -4.257978   -0.698222
H       2.419726   -2.212596    0.299901
H       4.160233   -3.023303   -0.906401
