13

C       0.011450    1.486771   -0.095261
C      -0.077380   -0.000080    0.030662
N      -1.127115   -0.664548   -0.259653
C      -1.098637   -2.050894   -0.104242
N      -2.112982   -2.770940   -0.377070
C       0.191447   -2.561986    0.392676
F       0.291825   -3.867422    0.564806
N       1.231452   -1.883864    0.678225
O       1.103382   -0.505968    0.488896
H       0.816048    1.759288   -0.784842
H      -0.938916    1.871228   -0.461642
H       0.246761    1.933913    0.875224
H      -1.900191   -3.753734   -0.200665
