21

C      -0.010426    1.557505    0.027823
C       0.026198    0.027449   -0.013326
C       0.683129   -0.500331   -1.299416
C       0.720746   -2.034373   -1.339958
C       1.441651   -2.616627   -0.122297
O       2.811979   -2.217967   -0.207423
C       0.831587   -2.059011    1.173249
O       0.456964   -2.785510    2.065237
C       0.750394   -0.544526    1.229309
H       1.003649    1.973097    0.001242
H      -0.559702    1.961699   -0.828933
H      -0.495971    1.919985    0.939808
H      -1.010742   -0.339744    0.010866
H       0.140628   -0.121960   -2.173161
H       1.706642   -0.113165   -1.369026
H      -0.300593   -2.435603   -1.358724
H       1.225183   -2.388782   -2.245070
H       1.349100   -3.709906   -0.096393
H       3.289880   -2.646660    0.510463
H       1.776143   -0.152746    1.244062
H       0.256567   -0.252899    2.159832
