17

C      -0.072307    1.573791    0.004452
C       0.056232    0.059311    0.047248
O       1.101013   -0.465000   -0.818541
C       1.665341   -1.229654    0.259498
C       2.175189   -0.308991    1.321300
C       0.700590   -0.660832    1.274542
N       0.053083   -1.276729    2.366559
C      -1.226006   -0.588638   -0.281559
N      -2.237232   -1.112325   -0.480490
H       0.870444    2.040220    0.296301
H      -0.327835    1.905015   -1.005854
H      -0.862029    1.905898    0.685076
H       2.007930   -2.233749    0.046194
H       2.684500   -0.793907    2.147600
H       2.547307    0.673866    1.050826
H      -0.199398   -0.609845    3.088508
H      -0.784069   -1.774939    2.079898
