12

O      -0.810530    0.814532    0.521938
C       0.239415    0.808513   -0.061488
C       1.277186    1.922637    0.087173
C       1.375236    2.492740    1.510494
O       2.557928    1.873048    2.022505
C       3.274174    1.315619    1.016530
O       4.346980    0.822022    1.127767
O       2.580465    1.399356   -0.160373
H       0.537044    0.002272   -0.764014
H       1.059108    2.691179   -0.662861
H       1.503843    3.578358    1.524201
H       0.516106    2.210311    2.120840
