15

C       0.047561    1.505947    0.038974
N       0.170064    0.061241    0.004098
C       0.629950   -0.677640   -1.032852
C       0.713045   -2.054468   -0.978542
C       1.197998   -2.809228   -2.076947
O       1.344912   -3.988665   -2.224857
O       1.577636   -1.975565   -3.213725
C       1.450334   -0.664214   -3.141812
N       1.013835    0.033427   -2.156702
H       0.660594    1.932239    0.841400
H       0.387500    1.904528   -0.915015
H      -0.993968    1.807243    0.199662
H      -0.110590   -0.450464    0.824697
H       0.412796   -2.610680   -0.099517
H       1.769296   -0.169489   -4.056938
