19

C      -0.109536    1.605912   -0.077797
C       0.202906    0.117782    0.099468
C       0.757755   -0.517804   -1.173777
C       0.868804   -2.094049   -1.188396
N      -0.088785   -2.069725   -2.316323
C      -0.860283   -2.594260   -3.305956
N      -1.464365   -1.613385   -3.955136
C      -1.068668   -0.422694   -3.376018
C      -0.205605   -0.710219   -2.347266
H       0.787047    2.169844   -0.357704
H      -0.858629    1.755691   -0.862140
H      -0.501513    2.039125    0.846948
H       0.931032   -0.016677    0.909857
H      -0.706411   -0.417731    0.399132
H       1.699840   -0.034879   -1.455722
H       1.846482   -2.502806   -1.454460
H       0.481285   -2.596011   -0.297960
H      -0.957317   -3.647811   -3.515140
H      -1.430191    0.524081   -3.744390
