15

O       0.180690    1.553145    0.225997
C       0.226579    0.200253   -0.170735
C      -1.147518   -0.452835   -0.061934
C      -1.225138   -1.982409   -0.002841
C      -1.662840   -1.751055    1.441925
O      -1.958435   -2.388743    2.395408
O      -1.603470   -0.369149    1.348217
C      -2.192913    0.230234   -0.936045
O      -2.789216   -0.335789   -1.814111
H      -0.096125    1.568312    1.150190
H       0.567358    0.180972   -1.211653
H       0.941492   -0.383657    0.429508
H      -1.989169   -2.419500   -0.646847
H      -0.285033   -2.526361   -0.108875
H      -2.360447    1.297510   -0.695124
