14

C      -0.013756    1.308372    0.009945
C       1.277570    1.806267   -0.000096
N       2.087975    0.704493   -0.014372
C       3.449041    0.538885   -0.028841
C       3.939254   -0.732334   -0.040884
N       3.157878   -1.852932   -0.039431
C       1.856844   -1.684627   -0.025541
C       1.239736   -0.414441   -0.012243
N      -0.037886   -0.048486    0.002527
H      -0.927035    1.885898    0.022290
H       1.672258    2.808429    0.001623
H       4.060610    1.431380   -0.029893
H       5.011726   -0.890990   -0.052444
H       1.218855   -2.564460   -0.024159
