15

N       0.130315    1.368908    0.057704
C      -0.027482   -0.025193   -0.044069
C      -1.150973   -0.829500    0.038170
C      -0.645223   -2.149973    0.179273
C       0.708704   -2.107401    0.166942
N       1.125478   -0.817778   -0.043983
O       1.258886   -3.331717   -0.150509
C       0.139859   -4.189021    0.150232
O      -1.068801   -3.446898   -0.051888
H       0.391770    1.798381   -0.825188
H      -0.719308    1.809998    0.385239
H      -2.174972   -0.492092    0.017978
H       2.017310   -0.434758    0.224886
H       0.158133   -5.053128   -0.514946
H       0.204554   -4.484069    1.210430
