18

N       0.311295    1.078058    0.062121
H       0.450508    0.064815    0.015849
H       1.225371    1.529766    0.122776
H      -0.134455    1.385263   -0.804011
C      -0.556663    1.479360    1.273057
C      -1.805617    0.623330    1.550543
C      -0.881191   -0.520916    2.061177
C      -0.246023    0.789100    2.613470
C      -1.708380    1.244184    2.999601
C      -2.061292    2.756101    3.281680
O      -2.761065    2.908171    4.285020
O      -1.598614    3.604956    2.470232
H      -0.694822    2.573197    1.305156
H      -2.697030    0.546833    0.927485
H      -1.314534   -1.195150    2.802158
H      -0.317215   -1.120816    1.327232
H       0.657100    0.903340    3.213461
H      -2.159602    0.606006    3.761199
