18

O      -0.481281    0.250113    0.368828
C      -0.147077    1.344991   -0.009666
C       1.266674    1.826455   -0.055548
C       1.499311    3.271258    0.295349
N       1.465661    2.864189   -1.091746
C       2.730226    2.859332   -1.837733
C       3.864398    2.081017   -1.226614
C       3.687317    1.158630   -0.284625
C       2.338456    0.800664    0.269904
H      -0.882662    2.098942   -0.366578
H       0.676381    3.902324    0.623394
H       2.460950    3.485468    0.758425
H       2.510914    2.461854   -2.838657
H       3.021352    3.906455   -1.989472
H       4.858045    2.289331   -1.614732
H       4.538099    0.608701    0.108106
H       2.394252    0.662498    1.356948
H       2.013942   -0.172824   -0.120562
