19

C      -0.111607    1.532858    0.043020
C       0.029952    0.025531    0.002559
N      -0.783723   -0.783180    0.948834
C       0.686160   -0.693709    1.124923
C       1.475738   -1.967199    0.839861
C       2.106912   -1.968878   -0.566977
C       1.155341   -1.455114   -1.621024
C       0.199615   -0.565665   -1.356032
H       0.741739    2.023966   -0.437130
H      -1.017284    1.854861   -0.485070
H      -0.174156    1.895476    1.074745
H      -1.242828   -0.156456    1.608431
H       1.041873   -0.082648    1.951863
H       2.254181   -2.106671    1.597478
H       0.788279   -2.814656    0.922702
H       3.020205   -1.355356   -0.573386
H       2.434526   -2.982877   -0.821633
H       1.272395   -1.838635   -2.631577
H      -0.475475   -0.222471   -2.136958
