16

O       0.171839    1.296197    0.166016
C       0.081183   -0.099453   -0.014365
C      -1.344831   -0.634101   -0.118548
C      -1.321579   -0.522289   -1.643202
C       0.256590   -0.581447   -1.485338
C       0.157592   -2.131142   -1.400471
C      -1.300942   -1.884284   -1.018900
O      -2.340712   -2.788752   -1.049544
H      -0.493346    1.703528   -0.402173
H       0.755764   -0.535650    0.730524
H      -2.184508   -0.467438    0.545740
H      -1.997975   -0.071618   -2.354021
H       0.984775   -0.094803   -2.130518
H       0.228427   -2.603117   -2.384527
H       0.820488   -2.642387   -0.691470
H      -2.343756   -3.279161   -0.219910
