15

C      -0.949744    1.018309   -0.500355
C      -0.183394   -0.231593   -0.225666
C       0.463990   -1.191490   -0.983650
N       0.638338   -1.379718   -2.359158
C      -0.138057   -0.943188   -3.390584
O      -1.106632   -0.218838   -3.306338
N       1.068823   -2.094367   -0.161802
N       0.836247   -1.766654    1.075892
N       0.085022   -0.658743    1.040478
H      -0.304337    1.902213   -0.430731
H      -1.369100    0.976159   -1.504586
H      -1.763041    1.143599    0.222345
H       1.351916   -2.061842   -2.575519
H       0.237712   -1.332312   -4.355490
H      -0.218557   -0.240791    1.906352
