17

C       0.178500    1.284405   -0.219170
C      -0.067624   -0.199583    0.106818
C       0.698081   -0.660051    1.299358
N       0.249780   -1.026295    2.463999
C       1.410700   -1.323095    3.146605
C       1.367827   -1.795141    4.569464
O       0.377682   -2.785617    4.750335
N       2.505510   -1.156883    2.459146
O       2.034276   -0.703008    1.214548
H       1.236669    1.470362   -0.419684
H      -0.395034    1.573807   -1.103465
H      -0.129756    1.923789    0.612814
H      -1.124774   -0.382801    0.310798
H       0.218337   -0.818177   -0.751248
H       2.332082   -2.229830    4.842665
H       1.195020   -0.924434    5.223022
H      -0.425147   -2.458435    4.326821
