21

C       0.101963    1.496093    0.115450
C      -0.023788   -0.024332    0.079921
O      -1.384554   -0.453293    0.086161
C       0.691937   -0.629087   -1.130690
O       2.094087   -0.263892   -1.163760
C       2.733604   -1.551855   -1.267284
C       1.875654   -2.293697   -2.320599
C       0.815129   -2.160582   -1.178451
C       2.008911   -2.398217   -0.195802
H       1.153995    1.790544    0.144261
H      -0.345517    1.942065   -0.782703
H      -0.411341    1.901293    0.991629
H       0.404727   -0.442845    0.996714
H      -1.839551    0.010238   -0.625956
H       0.200283   -0.245259   -2.039926
H       3.812614   -1.419045   -1.327401
H       1.688278   -1.778199   -3.266068
H       2.190397   -3.324414   -2.491515
H      -0.107773   -2.734861   -1.145044
H       2.328113   -3.441437   -0.180009
H       1.958697   -1.994329    0.817077
