18

C       0.191645    1.401578    0.152532
O      -0.147932    0.063824   -0.139648
C       0.553402   -0.493239   -1.229051
C       2.019784   -0.955430   -0.839162
N       1.887804   -2.298249   -0.197041
C       0.788142   -2.705856   -0.659940
O      -0.175055   -3.593676   -0.271081
C      -1.185401   -2.660497   -0.846940
C      -0.052170   -1.868289   -1.557060
H       1.237546    1.511232    0.471211
H       0.023153    2.057013   -0.716088
H      -0.455713    1.723737    0.971175
H       0.554389    0.204790   -2.079347
H       2.667194   -0.991280   -1.725555
H       2.479790   -0.267306   -0.125036
H      -1.885162   -3.199679   -1.486146
H      -1.690617   -2.124705   -0.043099
H       0.022525   -2.109362   -2.619175
