21

C      -0.225659    1.528764   -0.003208
C       0.011527    0.011167   -0.036079
C       0.882383   -0.465356   -1.184347
C       1.878275   -1.256196   -0.779447
C       1.896705   -1.399231    0.705754
C       2.141637   -0.110919    1.468418
C       0.726140   -0.562298    1.201491
C      -0.114684   -1.011160    2.362453
O      -0.709971    0.137283    2.962616
H       0.719612    2.076616    0.060387
H      -0.744311    1.861991   -0.908735
H      -0.833006    1.794060    0.865206
H      -0.977417   -0.468668   -0.112811
H       0.699159   -0.159911   -2.209263
H       2.620317   -1.717109   -1.421905
H       2.168709   -2.343482    1.166682
H       2.486076   -0.190184    2.494923
H       2.548780    0.730214    0.917942
H      -0.891123   -1.709621    2.009777
H       0.511243   -1.554974    3.088574
H      -1.345714   -0.163742    3.618724
