15

O       0.056291   -0.097198    0.336762
C       0.074648    1.091212    0.244609
O       1.224438    1.786755    0.097350
C       1.112326    3.225293    0.021587
C       0.977954    3.809968    1.352682
C       0.877946    4.289250    2.449154
C       2.360963    3.706861   -0.696902
C       2.384454    3.808491   -2.157707
O       2.242741    4.970918   -1.333534
H      -0.823462    1.737437    0.258049
H       0.242997    3.496387   -0.591917
H       0.784307    4.715486    3.418063
H       3.289324    3.538399   -0.153711
H       3.332386    3.719177   -2.683891
H       1.501732    3.532052   -2.732279
