19

C       0.016226    1.460263   -0.055975
C      -0.073465   -0.052960    0.144074
N      -1.428079   -0.557159   -0.002991
C      -1.950145   -1.274073   -1.029387
C      -3.281148   -1.483974   -0.739639
C      -3.473911   -0.846336    0.505015
C      -4.740242   -0.733919    1.293324
O      -5.445075   -1.965929    1.190062
N      -2.346889   -0.289347    0.947033
H       1.045996    1.799949    0.091137
H      -0.300221    1.741351   -1.064902
H      -0.626967    1.972545    0.663284
H       0.548313   -0.582277   -0.583596
H       0.277494   -0.325950    1.143837
H      -1.339883   -1.580793   -1.864797
H      -4.005867   -2.032273   -1.317428
H      -4.487757   -0.485543    2.334111
H      -5.352691    0.093806    0.898616
H      -6.310388   -1.842505    1.591206
