19

C       0.523627    1.430318    0.555835
C      -0.134528    0.123538    0.091764
C       0.445431   -0.405618   -1.208526
C       0.090445    0.301919   -2.458675
O       0.426452   -0.059876   -3.566392
C       1.891077   -1.000225   -1.226716
O       2.597238   -1.087343   -0.040493
C       0.719020   -1.895926   -1.412293
O       0.406986   -2.721978   -0.320152
H       1.588616    1.273128    0.743715
H       0.425467    2.220942   -0.195788
H       0.058808    1.792904    1.477884
H      -0.037515   -0.636504    0.870267
H      -1.213723    0.272696   -0.042703
H      -0.516746    1.224093   -2.322236
H       2.502111   -0.727054   -2.080499
H       2.159468   -1.772598    0.485635
H       0.486084   -2.287721   -2.399291
H       0.734747   -3.605754   -0.519512
