19

C       0.094439    1.502598    0.085722
C      -0.012880   -0.031215   -0.030778
C      -1.482961   -0.462528   -0.073612
C       0.827669   -0.578402   -1.217583
O       1.089234    0.434397   -2.179953
C       2.081955   -1.127795   -0.567440
C       1.997308   -1.181571    0.764554
C       0.693305   -0.632769    1.207037
O       0.246886   -0.631386    2.330925
H       1.135668    1.833704    0.118532
H      -0.381329    1.984304   -0.771174
H      -0.402667    1.827160    1.003974
H      -2.001351    0.008433   -0.914932
H      -1.580371   -1.548596   -0.176952
H      -1.982623   -0.171045    0.853959
H       0.282173   -1.408604   -1.695080
H       1.484009    0.020346   -2.953746
H       2.927894   -1.457983   -1.163274
H       2.734022   -1.567186    1.458228
