12

O       0.102046    1.334159    0.078803
C       0.069162   -0.008243    0.039093
N       0.079156   -0.614574   -1.139592
C       0.046467   -1.933708   -1.161770
F       0.058381   -2.489658   -2.368937
C       0.002060   -2.746966   -0.041668
C      -0.008301   -2.103944    1.197084
C       0.025384   -0.725209    1.242084
F       0.017069   -0.068013    2.401832
H       0.129259    1.633474   -0.840770
H      -0.022959   -3.823822   -0.136841
H      -0.042211   -2.662908    2.125007
