21

C      -0.107443    1.473512    0.058836
C       0.034278   -0.020044    0.001493
C      -0.056954   -0.877484   -1.264731
C      -0.213402   -2.094035   -0.316418
C       1.168838   -2.195834    0.377906
C       0.820153   -0.860209    1.037636
C       1.508596   -0.275725    2.227342
O       1.510999   -1.251274    3.267212
C      -0.664354   -1.087170    0.818182
H       0.762659    1.977077   -0.380074
H      -0.992379    1.797712   -0.500920
H      -0.219483    1.839401    1.084081
H      -0.982005   -0.658249   -1.807664
H       0.786817   -0.886697   -1.966590
H      -0.749489   -2.985964   -0.633571
H       1.199359   -2.988068    1.129462
H       2.054802   -2.258564   -0.267004
H       2.540709    0.005102    1.957838
H       0.998545    0.643251    2.554815
H       2.063876   -0.920199    3.981269
H      -1.499263   -1.048617    1.503419
