21

C       0.041228    1.403052   -0.327366
C      -0.126873   -0.085564   -0.001705
C       0.761007   -0.495119    1.185826
C      -1.583059   -0.493605    0.231682
C      -2.559686    0.385741    0.894994
O      -2.571742    0.216031   -0.525474
C      -1.816116   -1.979711    0.318825
C      -2.914458   -2.631661   -0.401090
O      -1.567988   -2.722849   -0.878045
H       1.065190    1.596323   -0.661136
H      -0.646332    1.715035   -1.115734
H      -0.135109    2.032305    0.552492
H       0.194679   -0.661343   -0.879681
H       0.443874    0.009305    2.106003
H       0.742345   -1.573443    1.367048
H       1.800966   -0.213377    0.994771
H      -3.405917   -0.054487    1.421362
H      -2.260933    1.372215    1.242535
H      -1.434211   -2.457173    1.222102
H      -3.334317   -3.558631   -0.012764
H      -3.577720   -2.017210   -1.003562
