15

N       0.134171    1.434289   -0.104101
C       0.074261   -0.015472    0.004904
C       0.631782   -0.501324    1.334055
C      -0.216292   -1.277444    2.009277
C      -1.505987   -1.407592    1.265120
O      -2.178375   -0.141701    1.061012
C      -1.344120   -0.644355    0.011310
C      -1.991198   -0.968639   -1.232542
N      -2.461667   -1.205663   -2.261964
H      -0.155114    1.732729   -1.030832
H      -0.518493    1.842357    0.560445
H       0.648525   -0.441190   -0.827707
H       1.607113   -0.172062    1.671104
H      -0.043652   -1.735822    2.974340
H      -2.163865   -2.265469    1.356705
