17

C      -0.021480    1.406587   -0.135076
N      -0.034831   -0.045182   -0.207781
C      -1.101765   -0.667149    0.037429
O      -2.314017   -0.075853    0.334313
C      -3.208686   -1.026651    0.933919
C      -2.644214   -2.400094    0.620209
C      -2.375508   -2.681046   -0.826698
C      -1.263876   -2.143795    0.055925
H       0.928545    1.731302    0.301533
H      -0.067223    1.827843   -1.147334
H      -0.848719    1.831375    0.445803
H      -3.246576   -0.851447    2.016476
H      -4.205592   -0.851699    0.516271
H      -2.839821   -3.212292    1.308868
H      -2.290965   -3.718885   -1.127444
H      -2.800394   -2.022099   -1.577542
H      -0.396027   -2.751227    0.269497
