22

C       0.261935    1.509869   -0.137455
C      -0.070584    0.030283    0.012389
C      -1.460551   -0.305976    0.646438
C      -0.765362   -1.233916    1.683095
C       0.629283   -0.763321    1.170802
C       1.602955   -1.755252    0.503323
N       1.362637   -1.761572   -0.957296
C       0.015383   -2.206265   -1.334162
C       0.312762   -0.754034   -1.240133
H       1.309924    1.653925   -0.424472
H      -0.361299    1.979404   -0.907898
H       0.092377    2.048816    0.800423
H      -1.932732    0.566759    1.105805
H      -2.187315   -0.774188   -0.021281
H      -0.973917   -0.997643    2.729332
H      -0.957201   -2.301200    1.541663
H       1.145171   -0.129800    1.896981
H       2.638423   -1.432791    0.656683
H       1.516894   -2.772258    0.903029
H      -0.050051   -2.681748   -2.309572
H      -0.617086   -2.662120   -0.577792
H       0.440509   -0.185646   -2.158796
