17

N       0.503297    0.244415   -0.846812
C      -0.122469    0.116868    0.357133
O       0.127213    0.823813    1.313844
C      -1.208350   -0.964537    0.412073
C      -0.783957   -2.363007   -0.031943
C      -1.895596   -3.441363    0.104325
N      -2.171699   -3.898777   -1.268038
C      -1.374222   -3.262156   -2.012849
O      -0.500452   -2.373694   -1.468204
H       1.265118    0.899687   -0.911180
H       0.365854   -0.434351   -1.577708
H      -1.537909   -1.009595    1.452896
H      -2.065733   -0.648325   -0.195393
H       0.143215   -2.658162    0.467353
H      -1.580821   -4.289608    0.719802
H      -2.809397   -3.034251    0.550375
H      -1.303527   -3.353607   -3.090953
