14

C      -0.005755    1.386202   -0.036225
O       0.046390   -0.043833    0.007508
C       0.609339   -0.661267   -1.031354
C       0.698564   -2.002505   -1.286812
N       0.172798   -3.091047   -0.556327
C       1.379477   -2.022059   -2.530777
N       1.684006   -0.826449   -2.981033
O       1.164424    0.060149   -2.013267
H       1.001017    1.812472   -0.071558
H      -0.572380    1.729159   -0.907067
H      -0.508907    1.689470    0.881726
H      -0.416390   -2.760158    0.199224
H       0.904080   -3.663061   -0.146052
H       1.665036   -2.886560   -3.114903
