16

O      -0.129017   -0.089314    0.427180
C      -0.078086    1.043934    0.034220
C      -1.290038    1.966527    0.031829
C      -1.797744    2.392891   -1.352755
O      -0.789554    2.863701   -2.231713
C       0.258397    3.571522   -1.607378
C       1.398525    2.638286   -1.211948
O       1.131337    1.557975   -0.307805
H      -2.089288    1.424558    0.541274
H      -1.052763    2.845301    0.639826
H      -2.258470    1.540176   -1.860578
H      -2.574932    3.160682   -1.215917
H       0.667676    4.265647   -2.351062
H      -0.095122    4.179460   -0.764602
H       1.785406    2.177932   -2.128284
H       2.206456    3.221488   -0.756265
