17

C      -0.024261    1.633313   -0.067060
C       0.098118    0.120694    0.022864
C       1.132034   -0.680909   -0.801421
C       2.532292   -0.139895   -0.450299
C       2.242500   -0.732061    0.914332
N       1.257575   -1.717220    0.370982
C       0.775134   -0.554609    1.213588
C       0.236825   -0.720809    2.527816
N      -0.214291   -0.812364    3.589296
H       0.933278    2.136995    0.090051
H      -0.409710    1.931825   -1.047602
H      -0.722192    2.004168    0.690295
H      -0.880395   -0.352085   -0.110044
H       0.892325   -1.040217   -1.799277
H       3.310186   -0.720422   -0.951860
H       2.739502    0.927871   -0.556498
H       2.935065   -1.007266    1.701461
