19

C       0.003454    1.498854    0.051114
C       1.315556    0.722060    0.019393
C       0.002426    0.008818   -0.047338
O      -0.406733   -0.742999    1.100550
C      -1.075062   -1.879006    0.565515
C      -0.256428   -2.224418   -0.682395
C      -0.504223   -0.802179   -1.234397
C      -2.044118   -0.767265   -1.164626
O      -2.337476   -1.499735    0.046477
H      -0.297353    1.928710    0.999770
H      -0.272273    2.082676   -0.821536
H       1.930674    0.779513   -0.872919
H       1.866157    0.642584    0.950168
H      -1.219158   -2.611081    1.357460
H       0.791417   -2.437553   -0.466330
H      -0.702005   -3.021232   -1.280831
H      -0.072138   -0.538277   -2.198668
H      -2.441745    0.249537   -1.082929
H      -2.514385   -1.269502   -2.019411
