27

C       0.765468    1.032890    0.781462
C       0.414006   -0.447019    0.605828
C      -1.092469   -0.692071    0.478380
C      -1.475480   -2.162956    0.280667
C      -2.996325   -2.353045    0.226827
C      -3.431901   -3.810647    0.063912
O      -0.898894   -2.637959   -0.939494
C       0.006061   -3.719166   -0.813192
C       0.516136   -4.076538   -2.199741
H       1.846902    1.179746    0.866092
H       0.415152    1.625866   -0.070809
H       0.301801    1.448176    1.683505
H       0.911512   -0.839818   -0.287941
H       0.806259   -1.018936    1.457836
H      -1.605545   -0.314010    1.372833
H      -1.484636   -0.118756   -0.372272
H      -1.074242   -2.751593    1.121422
H      -3.431540   -1.931546    1.141675
H      -3.384609   -1.757072   -0.608632
H      -3.022794   -4.234081   -0.857570
H      -3.088704   -4.427253    0.902683
H      -4.522116   -3.893441    0.017219
H       0.847252   -3.443927   -0.156962
H      -0.491416   -4.588223   -0.353882
H      -0.313352   -4.364676   -2.852098
H       1.024496   -3.221034   -2.653909
H       1.221328   -4.911468   -2.144233
