16

C      -0.002446    1.482594    0.139589
C      -0.002718    0.003007   -0.028790
C      -0.055767   -0.806892   -1.127524
N      -0.028737   -2.148777   -0.772526
C       0.039912   -2.132348    0.526886
N       0.059817   -0.879355    1.048191
O       0.092140   -3.174842    1.389932
C       0.066812   -4.437581    0.860777
N       0.116426   -5.409912    1.657589
H       0.908811    1.844173    0.631956
H      -0.060923    1.962048   -0.840252
H      -0.856824    1.833008    0.731843
H      -0.112417   -0.508474   -2.163176
H       0.110255   -0.651911    2.027191
H       0.004559   -4.435892   -0.228315
H       0.089802   -6.282760    1.133669
