18

C      -0.283001    1.439850   -0.085519
N      -0.317377   -0.009161   -0.227620
C       0.542260   -0.576597   -0.932713
O       1.599032   -0.057302   -1.672597
C       1.991720   -1.391252   -2.119960
C       3.254421   -1.891269   -1.432745
O       2.857226   -2.244630   -0.114946
C       1.560371   -2.822891   -0.210955
C       0.835230   -2.017392   -1.296537
H       0.508283    1.928775   -0.665409
H      -1.250882    1.851692   -0.391190
H      -0.148684    1.691273    0.972314
H       1.990763   -1.457093   -3.208510
H       3.644642   -2.765900   -1.980647
H       4.037673   -1.132813   -1.364794
H       1.622295   -3.882688   -0.506742
H       1.085619   -2.753378    0.769827
H       0.039986   -2.555659   -1.810263
