18

N       0.031152    1.406242    0.224670
C      -0.067883   -0.040799    0.011195
C      -1.485439   -0.438560    0.028983
N      -2.591228   -0.772086   -0.008401
C       0.587861   -0.576086   -1.275601
C       2.152128   -0.441043   -1.405690
C       2.226810   -1.965263   -1.537802
N       1.644158   -2.506827   -0.288043
C       0.751120   -2.099006   -1.401071
H       1.010835    1.660656    0.306309
H      -0.337439    1.903957   -0.581328
H       0.418797   -0.538274    0.857489
H       0.084551   -0.152741   -2.149507
H       2.447428    0.095533   -2.309062
H       2.684434   -0.028564   -0.543523
H       2.926757   -2.547714   -2.123149
H       1.722747   -3.522321   -0.325491
H       0.059868   -2.802252   -1.847147
