23

C      -0.672999    1.193151   -0.041912
C       0.184993   -0.058289   -0.148107
C       1.595278    0.033887   -0.788903
C       2.114869   -0.984706    0.258480
C       0.837113   -0.691269    1.125911
C       1.133145    0.296706    2.260425
C       0.144758   -1.947039    1.644388
C       0.833668   -2.712304    2.765809
O      -0.899588   -2.341823    1.174514
H      -0.144721    2.016967    0.449797
H      -0.965266    1.540841   -1.039073
H      -1.592038    0.995710    0.520273
H      -0.394247   -0.846573   -0.636337
H       1.687375   -0.241903   -1.842049
H       2.044456    1.022753   -0.653131
H       2.125362   -2.007113   -0.130134
H       3.079163   -0.780168    0.731686
H       1.654685    1.180193    1.879781
H       0.214548    0.638016    2.749160
H       1.775532   -0.154984    3.022542
H       0.647525   -2.211102    3.722555
H       0.424128   -3.721962    2.818926
H       1.918546   -2.749640    2.627222
