25

C      -0.206314    1.360626   -0.094201
O      -0.251650   -0.039722   -0.203608
C       0.814567   -0.565398   -0.975368
C       0.720310   -2.077907   -0.967979
C       0.836093   -2.639748    0.441569
C      -0.242207   -2.726966   -1.942082
C       1.248012   -2.869310   -2.164510
C       1.877891   -2.159488   -3.354826
C       1.889913   -4.227486   -1.926388
H       0.721128    1.705715    0.391242
H      -0.276811    1.852550   -1.078186
H      -1.059092    1.670883    0.515049
H       0.763190   -0.156994   -1.994284
H       1.779768   -0.242153   -0.544765
H       0.152963   -2.100236    1.102803
H       0.583141   -3.700063    0.494213
H       1.852086   -2.516500    0.836933
H      -0.798674   -3.595097   -1.602212
H      -0.801681   -2.079996   -2.610943
H       1.357119   -1.241384   -3.633389
H       2.927729   -1.906551   -3.161976
H       1.858795   -2.817860   -4.231466
H       1.831091   -4.834391   -2.837564
H       2.951446   -4.125735   -1.669608
H       1.406911   -4.792411   -1.127449
