18

N       0.038121   -1.157664   -0.148920
C       0.020247   -0.005378   -0.059783
C       0.012942    1.454839    0.032473
C      -0.833212    2.152641   -1.038799
C      -0.239480    3.572192   -1.096852
C       1.277184    3.348861   -0.918353
C       1.394928    2.194707    0.085911
C       0.994713    2.508317    1.540801
O      -0.311272    1.906294    1.366859
H      -0.702041    1.633282   -1.994803
H      -1.894101    2.123403   -0.778578
H      -0.483320    4.091544   -2.026467
H      -0.637901    4.171871   -0.272351
H       1.726356    3.047221   -1.871234
H       1.805029    4.246026   -0.580664
H       2.291637    1.588451   -0.034414
H       1.578428    1.984106    2.305719
H       0.918785    3.569353    1.805015
