21

O      -0.292937    1.598060    0.007368
C      -0.023952    0.215172    0.200573
C      -1.335984   -0.524666   -0.014065
C      -1.926602   -0.357920   -1.423055
O      -2.876167   -1.400545   -1.538079
C      -2.290866   -2.556418   -0.953672
C      -1.315187   -2.071833    0.158587
C       0.050957   -2.738163    0.022118
O      -0.157983   -4.134021    0.191873
H       0.529031    2.084720    0.117824
H       0.738240   -0.137525   -0.512667
H       0.360324    0.025252    1.215235
H      -2.059315   -0.109678    0.695757
H      -2.437903    0.593947   -1.574031
H      -1.133929   -0.451432   -2.188188
H      -3.099129   -3.187163   -0.576272
H      -1.738048   -3.134987   -1.709794
H      -1.700909   -2.345151    1.144913
H       0.482689   -2.523022   -0.968964
H       0.749451   -2.352086    0.780480
H       0.676406   -4.586942    0.039487
