19

C      -0.448584    1.292837    0.026859
C       1.024330    0.984076   -0.076825
C       0.026448   -0.131214    0.034020
C      -0.119580   -1.175669    1.153301
C      -0.518517   -2.231282    0.076727
O      -1.895237   -2.551132   -0.011499
C      -2.504589   -1.516509   -0.756748
O      -1.553552   -1.063045   -1.695496
C      -0.297446   -1.173843   -1.050651
H      -0.820065    1.708004    0.958545
H      -0.967360    1.639243   -0.860830
H       1.515792    1.134999   -1.033296
H       1.651775    1.190065    0.784795
H       0.810343   -1.418442    1.675943
H      -0.901264   -0.984614    1.893838
H       0.050166   -3.161723    0.064069
H      -3.369793   -1.920592   -1.289137
H      -2.815905   -0.692377   -0.092609
H       0.463148   -1.346200   -1.814525
