14

C      -0.016357    1.386574    0.014261
O      -0.011671   -0.040981    0.024901
C       0.583515   -0.628043   -1.016321
N       0.629198   -1.895524   -1.074886
C       1.243557   -2.494241   -2.151709
C       1.394529   -3.827840   -2.395026
O       2.045201   -3.991151   -3.543322
N       2.313857   -2.676091   -4.043389
N       1.843430   -1.849038   -3.225229
H       1.003745    1.785865    0.033310
H      -0.545962    1.774395   -0.862956
H      -0.541464    1.694835    0.918212
H       1.002851    0.047668   -1.770001
H       1.096071   -4.707484   -1.850806
