17

O       0.075232    1.630192    0.042941
C       0.006527    0.229110    0.103595
C       0.673161   -0.386179   -1.109196
O       1.172049    0.291935   -1.975308
C       0.644258   -0.314550    1.372710
C       0.064210   -0.092769    2.758880
C      -1.450054   -0.248395    2.724729
O      -1.339721   -1.531529    2.040968
C       0.085491   -1.474773    2.145149
H       0.524222    1.831014   -0.793585
H      -1.041226   -0.115315    0.080578
H       0.679165   -1.493723   -1.154575
H       1.731607   -0.270765    1.388893
H       0.642947    0.337951    3.563752
H      -1.894460   -0.387874    3.715501
H      -2.030608    0.484690    2.154184
H       0.611200   -2.391893    2.385548
