23

C      -0.185517    1.646756   -0.064283
C      -0.037302    0.118294   -0.074994
C      -1.423694   -0.543766   -0.001855
O      -2.115877   -0.195028    1.179130
C       0.739102   -0.397160   -1.300206
C       2.242809   -0.097104   -1.206590
C       2.795982   -0.611207    0.128407
C       1.970924   -0.050242    1.286395
O       0.589956   -0.344837    1.139801
H       0.776891    2.162032   -0.018627
H      -0.695134    1.980736   -0.973777
H      -0.787906    1.948896    0.794828
H      -2.040391   -0.218062   -0.846294
H      -1.289497   -1.634352   -0.076519
H      -1.491297   -0.363072    1.895912
H       0.599814   -1.483996   -1.364862
H       0.312419    0.034992   -2.212239
H       2.769333   -0.559555   -2.048039
H       2.418856    0.983094   -1.286263
H       2.742670   -1.706862    0.152697
H       3.847869   -0.331563    0.256137
H       2.266703   -0.499003    2.239690
H       2.132448    1.035979    1.371326
