19

C       0.121811    1.641552   -0.023944
C       1.671893    1.348489   -0.025536
C       1.287746   -0.015243    0.499834
C       1.467211   -0.872264    1.501551
C       0.152748   -1.561291    1.820620
O      -0.405339   -1.097650    3.079629
C      -1.300459   -0.196938    2.394641
C      -0.923496   -0.762041    1.006825
C      -0.129789    0.087351    0.003606
H      -0.185267    2.132928    0.901490
H      -0.277460    2.191522   -0.879092
H       2.065314    1.326713   -1.047281
H       2.321393    1.971982    0.592653
H       2.342742   -0.985309    2.130146
H       0.166962   -2.656763    1.789715
H      -2.340296   -0.347163    2.706158
H      -1.032378    0.854408    2.560990
H      -1.717777   -1.357551    0.555676
H      -0.267525   -0.272559   -1.022894
