20

C       0.113195    1.547967   -0.071602
C      -0.042502    0.046019   -0.068643
C       0.597915   -0.772137   -1.130874
N       1.196208   -0.700097    0.233204
C       1.037697   -2.141024    0.624810
C      -0.340241   -2.644560    0.105033
C       0.309121   -2.273569   -1.257969
O      -0.194339   -2.638557   -2.499870
C       1.651914   -2.823230   -0.631405
H       1.074426    1.837769   -0.504256
H      -0.687228    2.018013   -0.652997
H       0.070203    1.942974    0.948809
H      -0.974978   -0.299364    0.365356
H       1.134324   -0.299550   -1.950565
H       1.386007   -2.347734    1.634550
H      -0.425230   -3.727232    0.224696
H      -1.271199   -2.174145    0.420490
H      -0.283264   -3.596491   -2.523365
H       2.593829   -2.413648   -1.001921
H       1.687391   -3.914214   -0.568525
