20

C       0.135738    1.521253    0.065745
C       0.070128    0.008838   -0.051400
C       0.825080   -0.604552   -1.253918
C       1.334541   -1.931290   -0.698901
C       2.543032   -1.878734    0.222772
C       1.148843   -1.863136    0.793261
C       0.602169   -2.962052    1.662547
O       0.670634   -0.573278    1.115922
H       1.177105    1.855011    0.112248
H      -0.344285    1.992828   -0.797774
H      -0.375133    1.861647    0.970771
H      -0.985058   -0.308721   -0.096594
H       0.161779   -0.745963   -2.111936
H       1.644968    0.048590   -1.575726
H       1.142267   -2.846599   -1.246981
H       3.131243   -2.785280    0.327436
H       3.110904   -0.955218    0.269973
H       1.005133   -3.933190    1.359884
H       0.871091   -2.795696    2.711083
H      -0.490278   -3.005770    1.597028
