19

C      -0.004977    1.511008    0.032065
C       0.028609   -0.002042    0.013023
C       0.638450   -0.682119   -1.247303
C       0.110651   -2.161884   -1.183969
C      -0.736644   -2.155273    0.098726
O       0.140904   -2.045828    1.226421
C       0.660464   -0.691605    1.237219
C      -1.323746   -0.737959    0.038186
O      -2.446126   -0.322637   -0.004244
H       1.003692    1.935141   -0.010786
H      -0.569940    1.893314   -0.823476
H      -0.490902    1.880795    0.940369
H       0.295235   -0.176521   -2.154503
H       1.730746   -0.627146   -1.231500
H      -0.493066   -2.413793   -2.061128
H       0.916075   -2.894621   -1.099442
H      -1.424245   -2.984234    0.252363
H       1.756239   -0.722784    1.186025
H       0.368440   -0.202178    2.175488
