20

C       0.092928    1.495107    0.014326
C       0.040060    0.040061    0.028825
C       0.000519   -1.165034    0.043689
C      -0.031360   -2.598902    0.046045
C      -0.529072   -3.367602    1.266780
C      -1.344145   -3.385152    0.003182
C      -2.650380   -2.618594   -0.022069
C      -1.343290   -4.656564   -0.823353
H       1.115842    1.852602   -0.149923
H      -0.533927    1.914684   -0.780909
H      -0.252790    1.917519    0.964714
H       0.792870   -3.066413   -0.487107
H       0.018775   -4.260347    1.550341
H      -0.890571   -2.775772    2.100331
H      -2.581805   -1.690804    0.550530
H      -2.930575   -2.354942   -1.048508
H      -3.460640   -3.224720    0.399616
H      -2.103608   -5.358249   -0.459938
H      -1.564422   -4.443717   -1.875719
H      -0.374812   -5.164891   -0.780391
