15

C      -0.145392    1.553371    0.173883
C      -0.009266    0.040081    0.121985
O       1.160311   -0.351656   -0.710069
C       1.878918   -0.783491    0.372218
O       3.022732   -1.103768    0.412479
C       0.713928   -0.614828    1.361423
O       0.900380    0.094191    2.540394
C      -1.214439   -0.628515   -0.326427
C      -2.225036   -1.182761   -0.665651
H       0.797967    2.015873    0.477536
H      -0.419224    1.941064   -0.809752
H      -0.920506    1.831246    0.892370
H       0.255539   -1.573188    1.616341
H       1.592177    0.752328    2.414830
H      -3.115714   -1.672832   -0.974871
