15

O      -0.164039    0.026540    0.091112
C      -0.002662    1.217455    0.044552
C       1.350806    1.902446    0.032678
C       1.542674    2.827670   -1.197544
C       2.348023    4.033761   -0.689722
O       3.073758    4.736553   -1.340427
C       2.122562    4.121866    0.799471
O       0.719335    4.019276    1.117749
C       1.519320    2.846745    1.227142
H      -0.863954    1.921612    0.005003
H       2.121652    1.127165    0.071055
H       2.062680    2.342481   -2.024171
H       0.580946    3.190377   -1.579279
H       2.722960    4.767332    1.431174
H       1.652610    2.452024    2.230491
