17

C      -0.065959    1.543324    0.032589
C       0.060085    0.020540    0.030003
C       1.009663   -0.567344   -1.082415
C       1.996489   -1.349535   -0.178594
N       1.131481   -1.984723    0.874062
C       0.774512   -0.582295    1.274571
C       2.249349   -0.291689    0.919409
O       3.149881    0.373086    1.323085
H       0.914829    2.023506    0.117831
H      -0.534385    1.899830   -0.890266
H      -0.679409    1.887829    0.871967
H      -0.938694   -0.423748   -0.047877
H       0.489691   -1.231877   -1.778240
H       1.502178    0.215386   -1.668147
H       2.783042   -1.948213   -0.634376
H       0.335859   -2.479573    0.468461
H       0.343078   -0.417487    2.260789
