17

C       0.167534    1.556031    0.726527
N       0.259982    0.179671    1.169482
C       0.321890   -0.715523    0.274142
N       0.411892   -2.053918    0.597882
C       0.444079   -2.562041    1.955615
C       0.544284   -4.046831    1.740852
C       0.565641   -4.336893    0.438206
C       0.482753   -3.082402   -0.353996
O       0.473714   -2.928164   -1.555008
H       0.161420    1.672011   -0.368764
H      -0.745741    2.011397    1.127342
H       1.009859    2.130204    1.130126
H       0.312288   -0.549401   -0.808393
H       1.297671   -2.154905    2.511937
H      -0.457990   -2.273020    2.509343
H       0.589935   -4.744585    2.566671
H       0.631358   -5.305638   -0.035148
