20

C      -0.376888    1.511624    0.024122
C      -0.001775    0.032753    0.054213
C       0.755647   -0.467240   -1.204645
C       1.639056   -1.655683   -0.743622
C       1.368281   -1.831828    0.768918
O       2.415139   -2.397380    1.512560
C       0.902988   -0.414064    1.231082
C       2.073031    0.445013    1.410163
N       3.033091    1.079225    1.531628
H       0.515184    2.142971   -0.040926
H      -1.006434    1.728210   -0.844892
H      -0.933568    1.804775    0.920203
H      -0.920742   -0.557657    0.161633
H       0.054348   -0.743950   -1.996080
H       1.378376    0.339658   -1.603653
H       1.438628   -2.581042   -1.288154
H       2.701123   -1.428706   -0.885391
H       0.515594   -2.501877    0.921340
H       3.189867   -1.827652    1.426825
H       0.364128   -0.459407    2.181996
