20

C       0.114277    1.449011   -0.295338
C      -0.063080   -0.053039   -0.058502
C      -1.531775   -0.513882    0.116229
C      -2.190120    0.065426    1.376853
O      -2.302508   -0.203668   -1.045380
C      -1.508907   -2.051654    0.248519
C      -2.191544   -2.869088   -0.824539
O      -0.943709   -2.556955    1.192186
H       1.169919    1.684854   -0.458455
H      -0.429403    1.780581   -1.187054
H      -0.225253    2.047918    0.555321
H       0.357590   -0.598178   -0.912233
H       0.495708   -0.373533    0.825892
H      -2.187970    1.160155    1.355167
H      -3.229504   -0.269075    1.445823
H      -1.656218   -0.268944    2.268798
H      -2.448694    0.746971   -1.059331
H      -1.779057   -2.624834   -1.808350
H      -2.064672   -3.929883   -0.606517
H      -3.253710   -2.610392   -0.873484
