18

C       0.009880    1.507200   -0.001812
C       0.022409    0.051725    0.038359
C       0.045634   -1.151564    0.071804
C       0.037143   -2.608641    0.110635
C      -1.376341   -3.193689   -0.075512
C      -1.369870   -4.729237    0.016397
O      -0.864939   -5.213096    1.248592
C      -2.719596   -5.268463   -0.251564
N      -3.787130   -5.672643   -0.431353
H       0.650824    1.888774   -0.804232
H      -1.001237    1.891497   -0.175893
H       0.368703    1.935460    0.940592
H       0.697112   -3.007350   -0.672124
H       0.446812   -2.968194    1.061374
H      -2.051739   -2.790288    0.687820
H      -1.784483   -2.894185   -1.046142
H      -0.692900   -5.133961   -0.745289
H      -1.469924   -4.943069    1.949731
