17

O       0.419998    1.244419   -0.011102
C       0.055812   -0.093989   -0.026201
C       0.334662   -0.959141   -1.285140
C      -1.148515   -1.452161   -1.284366
C      -1.399114   -0.701462    0.042754
N      -0.979510   -1.518929    1.215857
C       0.299997   -0.776044    1.348515
C       1.493987   -1.605247    1.513689
N       2.445654   -2.253475    1.615862
H       0.429027    1.577347   -0.914203
H       0.601292   -0.353265   -2.157128
H       1.103110   -1.724868   -1.157841
H      -1.726671   -1.052158   -2.121576
H      -1.296042   -2.531058   -1.224612
H      -2.308573   -0.111111    0.168053
H      -1.577418   -1.432749    2.028478
H       0.296150   -0.000232    2.123821
