27

C      -0.083600    1.591053    0.077814
C       0.016633    0.065435   -0.010439
C       0.756890   -0.550050    1.183168
C       0.813797   -2.087714    1.186629
C       1.608405   -2.663235    0.006470
C       1.388709   -2.581169    2.515725
O       1.304162   -3.989277    2.569783
C       1.845953   -4.540302    3.750778
C       1.693312   -6.051258    3.697648
H       0.910191    2.051894    0.108529
H      -0.616193    2.007390   -0.783036
H      -0.618117    1.901851    0.982571
H      -0.991828   -0.365416   -0.069654
H       0.520150   -0.208954   -0.944731
H       1.780845   -0.149716    1.218093
H       0.268744   -0.210579    2.107636
H      -0.215252   -2.470063    1.129222
H       1.687180   -3.748675    0.098661
H       1.135119   -2.435393   -0.952541
H       2.625032   -2.250524   -0.015207
H       2.440729   -2.257328    2.617434
H       0.832360   -2.136032    3.358742
H       2.909549   -4.261979    3.848492
H       1.327235   -4.130801    4.634907
H       0.638087   -6.327267    3.616453
H       2.221051   -6.459983    2.831152
H       2.104008   -6.509129    4.602568
