14

N       0.081300    1.316241    0.121629
C       0.030032   -0.041793    0.036155
N      -1.058426   -0.732099    0.008229
C      -0.730279   -2.155098   -0.013896
C       0.798980   -2.275407   -0.017696
O       1.464499   -3.277521   -0.041260
C       1.267834   -0.843251    0.011554
N       2.427135   -0.297425    0.000150
O       3.464004   -1.195318   -0.042962
H       0.946744    1.758845   -0.140544
H      -0.770504    1.814337   -0.082503
H      -1.148036   -2.676251    0.857192
H      -1.149346   -2.647945   -0.900426
H       4.242935   -0.625216   -0.042425
