22

C       0.024516    1.534937   -0.035155
C      -0.013883    0.004287    0.059796
C       0.766845   -0.518446    1.272464
N      -1.388289   -0.495215    0.055636
C      -2.350134   -0.240663    1.002573
C      -3.504710   -0.891509    0.634035
C      -3.246753   -1.575900   -0.589663
C      -4.204347   -2.420713   -1.375677
C      -1.934420   -1.306801   -0.911669
H       1.058493    1.884959   -0.113388
H      -0.527963    1.882975   -0.911950
H      -0.420260    1.995638    0.852446
H       0.443892   -0.407125   -0.846027
H       0.734957   -1.610458    1.312751
H       1.813080   -0.202341    1.215767
H       0.348673   -0.130949    2.206740
H      -2.137562    0.379875    1.858401
H      -4.436480   -0.880679    1.180574
H      -5.083543   -1.849690   -1.697630
H      -3.728818   -2.824725   -2.274654
H      -4.574845   -3.270569   -0.789910
H      -1.340847   -1.628047   -1.754268
