23

C       1.041252   -0.694334   -0.843035
C       0.026629   -0.126914    0.156378
C      -1.465752   -0.429739   -0.079299
C      -2.304801    0.330095    0.944563
O      -2.136199    1.724709    0.726019
C      -1.952630   -0.278538   -1.556918
C      -1.919424   -1.823507   -1.717776
C      -1.835704   -1.942604   -0.173410
O      -0.897635   -2.821992    0.409953
H       2.048286   -0.351977   -0.582723
H       1.044168   -1.786223   -0.829372
H       0.844453   -0.359934   -1.867114
H       0.283503   -0.492742    1.158287
H       0.121693    0.963544    0.190068
H      -3.364013    0.046544    0.831723
H      -1.992160    0.043731    1.962676
H      -2.632873    2.198180    1.399206
H      -2.962407    0.135604   -1.613673
H      -1.312555    0.298769   -2.226213
H      -2.770774   -2.301000   -2.210281
H      -0.997012   -2.171335   -2.188520
H      -2.835284   -2.115162    0.255549
H      -1.204461   -3.723648    0.271901
