21

C      -0.022954    1.463846   -0.026601
C      -0.040801   -0.028342    0.017690
O       0.843830   -0.730202   -0.868310
C      -0.055709   -1.887820   -0.822582
C       0.536816   -2.897895    0.153061
C       0.619978   -2.083539    1.476299
C      -0.317451   -0.897487    1.238395
C      -1.117364   -1.072750   -0.046394
C      -2.603286   -1.044372   -0.232748
H       0.948913    1.848493    0.302819
H      -0.205134    1.827157   -1.043171
H      -0.790769    1.876873    0.634388
H      -0.294142   -2.248746   -1.825870
H      -0.133907   -3.760003    0.253748
H       1.510448   -3.264220   -0.184373
H       0.298868   -2.674186    2.339127
H       1.644106   -1.751666    1.671133
H      -0.799131   -0.405762    2.078030
H      -3.059291   -0.264515    0.386186
H      -2.878057   -0.843498   -1.274612
H      -3.063250   -1.997824    0.055010
