23

C      -0.043360    1.563943   -0.068764
C       1.448396    2.025802   -0.043657
C       2.197855    0.817894    0.530051
C       3.700283    0.664834    0.323031
C       4.183261   -0.630491    1.015245
C       3.206771   -1.780128    0.906781
C       1.969931   -1.676010    0.416024
C       1.444293   -0.364956   -0.093724
C      -0.025614    0.017862    0.145507
H      -0.624611    2.058186    0.714622
H      -0.516864    1.827418   -1.018746
H       1.802170    2.234838   -1.060786
H       1.595659    2.939542    0.539474
H       2.001865    0.780944    1.613571
H       3.912742    0.612777   -0.753219
H       4.256276    1.525566    0.711890
H       5.155350   -0.936784    0.606997
H       4.372552   -0.432463    2.081077
H       3.562606   -2.743394    1.267141
H       1.329634   -2.553682    0.356202
H       1.611649   -0.324403   -1.184355
H      -0.311241   -0.232174    1.173894
H      -0.719679   -0.506889   -0.517405
