17

O       0.129709    1.408532    0.407150
C       0.082221    0.063758   -0.046315
C      -1.264883   -0.504045   -0.061244
C      -2.392662   -0.928479   -0.096875
C      -3.746462   -1.450679   -0.117931
O      -4.353618   -1.515463   -1.451300
C      -4.672981   -2.895672   -1.249108
C      -3.431276   -3.714263   -1.100796
C      -3.979393   -2.954254    0.088606
H      -0.503312    1.911593   -0.115909
H       0.525397   -0.039721   -1.049872
H       0.720707   -0.504841    0.639102
H      -4.395476   -0.851799    0.532532
H      -5.637770   -3.246738   -1.594445
H      -3.580546   -4.788230   -1.046682
H      -2.515405   -3.394073   -1.588502
H      -4.257016   -3.415627    1.025703
