20

C      -0.308986    1.486937   -0.022220
C      -0.057926   -0.011476   -0.075361
C       1.142905   -0.559938   -0.961230
O       1.996682    0.365041   -1.572022
C       1.689163   -1.257122    0.293209
N       1.974670   -0.133067    1.225262
C       0.594179   -0.700195    1.134459
C      -0.094868   -1.251002    2.341842
O      -0.680501   -0.235600    3.145938
H       0.590227    2.025740    0.287380
H      -0.608831    1.867410   -1.003411
H      -1.104466    1.715261    0.694192
H      -0.974924   -0.545613   -0.346904
H       0.803661   -1.249916   -1.736670
H       2.433123    0.831409   -0.846043
H       2.236337   -2.189283    0.375172
H       2.425732   -0.535312    2.046911
H      -0.925314   -1.897597    2.037838
H       0.608750   -1.873373    2.921637
H       0.004947    0.411498    3.343738
