21

C       0.200383    1.538700   -0.142991
C       0.044860    0.056284    0.114557
C      -1.056728   -0.614943   -0.681784
O       1.271001   -0.709752    0.165934
C       0.495540   -0.598902    1.358986
C       1.153359    0.016579    2.570471
C       2.437695   -0.714843    3.042801
C       3.144658    0.607254    2.690525
O       1.891487    1.235089    2.342280
H       1.032009    1.949819    0.424836
H       0.366630    1.710023   -1.212701
H      -0.716923    2.069098    0.136296
H      -0.891339   -0.467546   -1.754660
H      -1.087038   -1.689436   -0.484879
H      -2.032941   -0.184865   -0.433025
H      -0.028463   -1.520799    1.637262
H       0.389699    0.158916    3.348131
H       2.452738   -0.985141    4.099228
H       2.722638   -1.575503    2.436615
H       3.639468    1.127942    3.518237
H       3.824320    0.560112    1.832588
