15

N      -0.081552    1.436883    0.103216
C       0.039498   -0.012117    0.014959
C       0.860333   -0.537086    1.244679
N       0.317791   -0.082984    2.531667
C       0.913398   -2.000562    1.198412
C       0.904120   -3.199096    1.136511
C       2.236731    0.009076    1.108443
N       3.279228    0.479714    0.946984
H       0.765956    1.888937   -0.225681
H      -0.845686    1.769809   -0.472395
H      -0.956400   -0.458091    0.093583
H       0.505247   -0.386992   -0.907797
H      -0.015664    0.869418    2.384913
H      -0.485274   -0.660234    2.762699
H       0.916008   -4.260667    1.092619
