19

C      -0.567814    1.125087   -0.271368
O       0.266804    0.028370    0.063469
C       0.907151   -0.573926   -1.057017
C       2.282979   -1.140274   -0.632040
N       2.125431   -2.577133   -0.388401
C       0.982347   -2.937634   -0.831487
N       0.491231   -4.216004   -0.815500
C       0.127513   -1.852905   -1.477768
O      -1.223196   -1.881534   -1.059098
H       0.007277    1.927672   -0.755132
H      -1.388730    0.828274   -0.936971
H      -0.984731    1.505540    0.664598
H       0.986145    0.155024   -1.870876
H       3.035036   -0.968601   -1.413708
H       2.633552   -0.631857    0.272152
H       0.959793   -4.854202   -0.189308
H      -0.516767   -4.273972   -0.808084
H       0.120114   -1.980503   -2.566067
H      -1.215651   -1.487003   -0.175145
