13

N       0.026850    1.369869    0.148331
C      -0.036803   -0.007405    0.050784
C      -1.172833   -0.750471    0.025052
O      -1.207079   -2.095845   -0.018078
N      -0.044868   -2.826740   -0.026370
C       1.074838   -2.171325   -0.006671
O       2.207874   -2.885348   -0.023306
C       1.236948   -0.707225    0.019635
O       2.319424   -0.136844    0.005925
H       0.953796    1.709042   -0.078796
H      -0.717162    1.895911   -0.283327
H      -2.178588   -0.347126    0.036551
H       1.961399   -3.821595   -0.049552
