17

C       0.405235    1.496633   -0.368474
C      -0.107862    0.140492    0.141628
O      -0.195855   -0.825770   -0.895396
C       0.707729   -0.339112    1.263189
C       1.424945   -0.751062    2.144001
C       2.250933   -1.219691    3.224879
O       3.117180   -2.063580    3.087426
C       2.002412   -0.607296    4.597523
O       2.873310   -1.139622    5.546469
H       1.439743    1.410365   -0.715212
H      -0.221393    1.820854   -1.202728
H       0.370809    2.251942    0.421634
H      -1.139554    0.263910    0.492608
H       0.700912   -1.045869   -1.173121
H       2.115470    0.485824    4.509170
H       0.947663   -0.788165    4.863503
H       3.413344   -1.785542    5.062469
