19

O      -0.096375    1.499844   -0.032396
C       0.036840    0.098622   -0.012775
C       0.355692   -0.600407    1.343858
C      -0.771645   -1.605454    1.014206
C      -1.312823   -0.649922   -0.064602
C      -0.561154   -3.116272    0.730203
C      -0.448107   -3.381402    2.249678
C      -1.642643   -2.435223    1.983015
O      -2.028680   -3.297260    0.835520
H       0.782671    1.889535    0.011994
H       0.717987   -0.249059   -0.802656
H       1.366956   -0.984616    1.501485
H       0.083417    0.057202    2.175562
H      -2.106281   -0.004516    0.324610
H      -1.632790   -1.076512   -1.015999
H      -0.053740   -3.605674   -0.102822
H      -0.722951   -4.390007    2.559909
H       0.418477   -2.987205    2.785475
H      -2.437184   -2.107265    2.654952
