23

C       0.029009    1.583092    0.018105
C      -0.016427    0.048078    0.001125
C       0.679646   -0.494336   -1.265161
C       0.226839   -1.893497   -1.714256
O      -0.078995   -2.804641   -0.672963
C       0.867627   -2.899153    0.372388
C       0.467446   -1.997878    1.549626
O       1.268507   -2.286513    2.692227
C       0.634216   -0.502103    1.285080
H       1.064202    1.945242    0.019940
H      -0.468127    2.003916   -0.862029
H      -0.463772    1.986289    0.908734
H      -1.070586   -0.260882   -0.020620
H       0.500272    0.181522   -2.110540
H       1.764518   -0.478112   -1.100213
H      -0.704026   -1.815308   -2.286313
H       0.987890   -2.323563   -2.386134
H       0.864479   -3.944199    0.711308
H       1.889348   -2.670790    0.036289
H      -0.595389   -2.206020    1.754074
H       1.086485   -3.191995    2.963681
H       1.711220   -0.284380    1.260838
H       0.235609    0.029344    2.156591
