20

N      -0.008695   -1.153171    0.243099
C      -0.012928    0.000583    0.178187
C       0.001288    1.459327    0.090881
C       1.423644    2.034389   -0.054508
C       1.415851    3.562468   -0.162155
C       2.821117    4.136499   -0.227204
C       3.000876    5.659702   -0.039023
C       3.890225    5.261473    1.155602
O       3.580183    3.862913    0.976701
H      -0.620676    1.759788   -0.760971
H      -0.481060    1.864681    0.988216
H       2.027808    1.737956    0.808079
H       1.898900    1.597243   -0.939945
H       0.863902    3.880330   -1.057785
H       0.899182    3.994546    0.704950
H       3.347087    3.738350   -1.107998
H       3.494279    6.191070   -0.853667
H       2.082812    6.186432    0.230563
H       4.961146    5.460255    1.023559
H       3.581902    5.626626    2.141824
