16

C       0.001786    1.395046   -0.152512
C       1.465338    1.896552    0.117358
C       2.224778    0.602075   -0.001939
C       1.328178   -0.428747    0.013019
N      -0.041732   -0.092587    0.043340
N       1.988803   -1.617946   -0.056133
C       3.350237   -1.342974   -0.108015
C       3.524049    0.024935   -0.076712
H      -0.745284    1.877617    0.482188
H      -0.262803    1.598970   -1.195145
H       1.744472    2.660336   -0.615387
H       1.569724    2.356222    1.110883
H      -0.464515   -0.318615    0.941038
H       1.573024   -2.530307   -0.117951
H       4.067724   -2.144847   -0.169859
H       4.477435    0.530827   -0.104364
