15

O      -0.525048    0.250032    0.044130
C       0.005614    1.330120    0.087490
C       1.415539    1.618716   -0.386819
C       1.447696    2.794082   -1.341015
N       1.241684    4.120082   -0.749413
C       2.562837    3.797907   -1.339022
C       3.685461    3.701038   -0.447955
C       4.643111    3.607284    0.272888
H      -0.523236    2.220158    0.494847
H       2.022042    1.868945    0.492777
H       1.828996    0.718445   -0.849980
H       1.000070    2.605397   -2.315608
H       0.724876    4.724898   -1.382256
H       2.793128    4.241842   -2.305171
H       5.485099    3.533146    0.915987
