18

C       0.022916    1.552261   -0.027211
C       0.004281    0.047704   -0.079875
C       0.402819   -0.813920   -1.293225
C      -0.318989   -1.959595   -0.537688
C       0.621606   -2.170099    0.667181
C       0.341877   -0.770450    1.242583
O      -1.081461   -0.873942    1.555562
C      -1.248684   -0.838445    0.135402
H       1.049117    1.937320   -0.001520
H      -0.471918    1.987210   -0.902351
H      -0.493613    1.912413    0.868758
H      -0.138321   -0.485040   -2.186354
H       1.460760   -0.953053   -1.537674
H      -0.721583   -2.829965   -1.051902
H       0.303604   -2.943963    1.368773
H       1.658349   -2.344620    0.366224
H       0.943129   -0.370696    2.058958
H      -2.260933   -0.654297   -0.223208
