20

C       0.119715    1.568525    0.062767
C      -0.043221    0.060721    0.088535
O       0.789870   -0.589149   -0.926025
C       1.604797   -1.215347    0.088500
C       0.716768   -0.678622    1.207860
N       0.301322   -2.074524    1.635782
C      -0.259511   -2.797947    0.468498
C       1.200974   -2.642593    0.526646
C       2.179839   -3.752769    0.766099
H       1.161413    1.855034    0.238262
H      -0.183821    1.964145   -0.911105
H      -0.504801    2.031867    0.834494
H      -1.098778   -0.212335   -0.032610
H       2.673143   -1.024639   -0.036383
H       1.064774   -0.101984    2.063596
H      -0.665368   -3.762826    0.758103
H      -0.832788   -2.279316   -0.291746
H       2.498373   -4.199996   -0.183084
H       3.074897   -3.392665    1.285448
H       1.728206   -4.537904    1.379148
