13

N      -0.043769    1.369972   -0.141917
C      -0.013177    0.001013   -0.060144
N      -1.171768   -0.662888   -0.037241
C      -1.129877   -1.978978   -0.012254
F      -2.313801   -2.588614    0.008415
C       0.018618   -2.755319   -0.000335
C       1.232652   -2.064684   -0.012472
C       1.210033   -0.689467   -0.043303
F       2.345348    0.032645   -0.048226
H       0.788712    1.860866    0.140758
H      -0.920794    1.795822    0.113493
H      -0.036935   -3.834759    0.023290
H       2.184060   -2.583669    0.002193
