23

C       0.279803    1.373017   -0.043059
O       0.170514   -0.031357   -0.019812
C       0.557777   -0.608831    1.213762
C       0.512642   -2.135295    1.040908
C      -0.934187   -2.596554    0.792925
O       1.335782   -2.477401   -0.075655
C       1.142488   -2.803757    2.270813
C       1.216811   -4.332317    2.199198
O       1.878067   -4.884000    3.330209
H       1.313671    1.702813    0.141859
H      -0.028756    1.709538   -1.035714
H      -0.371346    1.841908    0.710217
H       1.582593   -0.296464    1.469582
H      -0.114022   -0.281826    2.023602
H      -1.378879   -2.010718   -0.015681
H      -0.954030   -3.649934    0.505359
H      -1.553113   -2.466631    1.687382
H       1.105373   -1.850631   -0.772832
H       2.164466   -2.415485    2.376014
H       0.591417   -2.515026    3.173421
H       0.213986   -4.769426    2.210858
H       1.698249   -4.634502    1.259810
H       2.796729   -4.598954    3.297201
