19

O       0.207410   -0.160264   -0.363303
C       0.093841    1.028566   -0.223119
C       1.254649    2.001145   -0.049284
C       1.289687    2.985248   -1.173839
C       0.976641    4.285622   -1.226559
C       1.216220    4.655400   -2.696149
C       0.555923    3.423276   -3.407374
C       1.689333    2.669003   -2.629880
C       2.578490    3.919094   -2.949687
H      -0.904719    1.522917   -0.231447
H       1.104624    2.532204    0.899981
H       2.176955    1.414107    0.014934
H       0.643362    4.947959   -0.439360
H       1.036862    5.682086   -3.013328
H      -0.479099    3.187271   -3.148369
H       0.697501    3.418132   -4.492691
H       1.993144    1.650766   -2.872785
H       2.909193    3.961706   -3.992195
H       3.404186    4.138633   -2.268677
