17

C       0.102046    1.498962    0.417615
N      -0.007864    0.242215   -0.287841
C      -1.177212   -0.663226   -0.302959
C      -1.860337   -1.500419   -1.462469
C      -0.590436   -1.435569   -2.293046
C      -0.216517   -1.713109   -0.805302
O      -1.301463   -2.741963   -0.764885
C       0.902208   -0.870133   -0.165826
N       2.074969   -1.048099    0.242643
H       1.136719    1.852583    0.365156
H      -0.532869    2.250259   -0.059732
H      -0.182847    1.417186    1.477588
H      -1.607394   -0.849582    0.684229
H      -2.909788   -1.587138   -1.752462
H      -0.438406   -2.279704   -2.963790
H      -0.285890   -0.474735   -2.706923
H       2.500341   -0.187825    0.593594
