17

O       0.115116    1.327184   -0.289366
C       0.018434   -0.043185   -0.032603
C       0.325552   -0.991968   -1.247601
C      -1.126971   -1.537845   -1.202237
C      -1.393439   -0.681368    0.082039
C      -1.317616   -1.469826    1.359529
C      -0.143925   -1.347802    2.001136
C       0.726999   -0.403468    1.275348
O       1.779931    0.089567    1.621425
H       0.937639    1.615024    0.134432
H       0.557796   -0.405953   -2.138466
H       1.119013   -1.725194   -1.086332
H      -1.736065   -1.231107   -2.054413
H      -1.231510   -2.616831   -1.069308
H      -2.250297   -0.005634    0.037082
H      -2.135406   -2.105494    1.686294
H       0.141300   -1.819849    2.932554
