18

C      -0.686506    1.277794    0.037298
C      -0.159168   -0.139535    0.091666
O       0.121360   -0.696801    1.131120
C      -0.016814   -0.875127   -1.215383
C       0.980117   -2.017399   -1.288237
C      -0.485035   -2.314891   -1.230920
O      -0.302602   -0.141425   -2.382872
C       0.708299    0.596829   -2.904651
N       0.480784    1.359904   -3.881500
H       0.023595    1.935733   -0.476126
H      -1.614728    1.320367   -0.540863
H      -0.847033    1.637936    1.053549
H       1.489113   -2.156235   -2.234929
H       1.570487   -2.184476   -0.395271
H      -0.895500   -2.694212   -0.303166
H      -0.977736   -2.630516   -2.142860
H       1.668623    0.435471   -2.399153
H       1.339307    1.828092   -4.164492
