16

C      -0.002258    1.449478    0.033726
N       0.061276    0.000978    0.039882
C      -1.050621   -0.633410   -0.015793
N      -2.315201   -0.099291   -0.105908
C      -1.022128   -2.104292   -0.026225
C       0.062413   -2.951304   -0.052999
N      -0.493751   -4.180680   -0.040580
N      -1.840613   -4.124152   -0.008078
N      -2.156965   -2.862885    0.000165
H       1.010830    1.859556    0.034168
H      -0.525442    1.845438   -0.851558
H      -0.516017    1.854089    0.922744
H      -2.454944    0.852040    0.188654
H      -3.082985   -0.736338    0.044204
H       1.121439   -2.766282   -0.077250
H      -0.040939   -5.080983   -0.051680
