16

O      -0.008335   -0.029691    0.041351
C      -0.025686    1.173393    0.012929
C      -1.274839    2.082259   -0.003232
N      -0.776281    3.466481    0.007286
C      -0.065569    3.803709    1.255757
C       1.162571    4.287244    0.557054
C       1.227755    2.960942    1.291616
C       1.145540    2.138552   -0.017273
C       0.594001    3.460189   -0.637614
H      -1.847598    1.893645   -0.919881
H      -1.933684    1.881196    0.846050
H      -0.567698    4.171559    2.141496
H       1.733581    5.199523    0.631894
H       1.743912    2.704541    2.206663
H       2.091772    1.747979   -0.385217
H       0.648072    3.678964   -1.702341
