16

O      -0.019840    1.297198    0.239793
C       0.048823   -0.028895    0.036382
N       0.167162   -0.643232   -1.108380
C       0.190430   -1.989298   -0.774150
C       0.075025   -2.171046    0.575722
N      -0.008982   -0.875412    1.094832
C       0.066403   -3.371909    1.432682
C      -1.222692   -3.932680    1.938289
N      -0.456628   -4.641212    0.902925
H       0.039624    1.705980   -0.633093
H       0.304761   -2.748056   -1.533222
H      -0.132458   -0.614237    2.058345
H       0.945843   -3.512545    2.061134
H      -1.252650   -4.427220    2.905045
H      -2.138247   -3.423866    1.649931
H      -0.886083   -4.468098   -0.003059
