23

C       0.557760    1.012664    0.378959
O      -0.107316   -0.099454   -0.179283
C       0.574882   -0.686530   -1.238113
C       1.434285   -1.933608   -1.011291
O       1.542408   -2.492938    0.256273
C       2.713591   -2.115003    0.946395
C       0.091625   -2.043487   -1.697752
C      -1.046190   -2.687518   -0.927501
C       0.087217   -2.317979   -3.189998
H       1.534481    0.744562    0.805642
H       0.716159    1.804715   -0.369340
H      -0.082033    1.402352    1.174309
H       0.906867    0.021243   -2.002026
H       2.330994   -2.045540   -1.626184
H       3.619468   -2.414999    0.397035
H       2.763447   -1.031340    1.122792
H       2.698504   -2.630991    1.909354
H      -0.989728   -2.455332    0.134945
H      -2.010530   -2.333242   -1.307890
H      -1.016041   -3.776258   -1.045391
H       0.157450   -3.393871   -3.388564
H      -0.837175   -1.950782   -3.651043
H       0.927075   -1.831223   -3.696363
