17

C      -0.156218    1.473803   -0.175841
C      -0.130990    0.006770    0.164262
O       1.105756   -0.698363    0.007242
C       0.561117   -0.589953    1.322356
C       1.355012    0.218342    2.315197
O       0.557778    0.643806    3.449601
C       1.396433   -0.007238    4.426905
C       2.272926   -0.551099    3.291712
O       3.221236   -1.264311    3.199472
H       0.714625    2.003288    0.214985
H      -0.169488    1.604147   -1.262748
H      -1.059845    1.939690    0.230651
H      -0.992447   -0.554806   -0.202930
H       0.157179   -1.520364    1.725044
H       1.862092    1.056227    1.821928
H       1.898552    0.698018    5.101484
H       0.860951   -0.759323    5.019456
