13

N       0.112893    1.425467   -0.002656
C      -0.007095    0.044480   -0.018218
N      -1.172500   -0.470436   -0.224985
O      -1.202449   -1.888711   -0.393415
C      -0.146791   -2.691583   -0.141295
O      -0.263742   -3.884805   -0.204129
C       1.180194   -2.040323    0.172216
N       2.251880   -2.679753    0.390265
N       1.154558   -0.657553    0.156838
H       0.600229    1.790231    0.807163
H      -0.789545    1.869070   -0.119596
H       2.049055   -3.679217    0.331750
H       2.040231   -0.173979    0.212735
