16

C       0.034487    1.425716   -0.458495
C      -0.081667    0.100665    0.311566
C      -1.431437   -0.537951    0.175110
N      -2.199135   -0.656623    1.233129
O      -3.382769   -1.276260    0.762227
C      -3.260846   -1.494733   -0.551873
N      -4.357828   -2.040236   -1.175329
C      -2.047049   -1.054472   -1.000005
H       1.032466    1.856635   -0.334509
H      -0.139560    1.282205   -1.529489
H      -0.698767    2.151610   -0.095070
H       0.682787   -0.599456   -0.047261
H       0.108090    0.265264    1.376169
H      -4.968232   -2.554991   -0.556280
H      -4.154290   -2.540831   -2.027010
H      -1.657200   -1.089054   -2.003141
