22

C      -0.673676    1.175256   -1.210060
C      -0.028816    0.030895   -0.403052
C      -1.088038   -0.975792    0.088156
C       1.020298   -0.637360   -1.175444
C       1.891223   -1.185226   -1.805362
C       2.928171   -1.860577   -2.593755
N       2.507358   -2.528248   -3.834134
C       1.202735   -3.178965   -3.867123
C       1.445082   -1.920148   -4.626817
H       0.077321    1.900846   -1.533015
H      -1.172658    0.783377   -2.101971
H      -1.419862    1.695976   -0.601381
H       0.446935    0.474158    0.483256
H      -1.600875   -1.439429   -0.760430
H      -0.629883   -1.770419    0.682665
H      -1.836844   -0.468803    0.705149
H       3.704962   -1.136258   -2.868795
H       3.419471   -2.620253   -1.973101
H       1.175628   -4.139040   -4.374762
H       0.567630   -3.098360   -2.987763
H       0.967274   -1.022629   -4.240430
H       1.599033   -1.939714   -5.702033
