23

C       0.031359    1.574420    0.076422
C       0.011925    0.052315   -0.095438
C       0.869684   -0.472816   -1.261370
C       2.363284   -0.164034   -1.082174
C       0.644832   -1.982835   -1.444084
C       1.172361   -2.549814   -2.746530
O       1.364766   -1.877201   -3.739044
C       1.449281   -4.046872   -2.811890
O       1.809645   -4.445596   -4.099166
H       1.024763    1.944940    0.345993
H      -0.273082    2.079373   -0.847192
H      -0.658648    1.884557    0.867233
H       0.339835   -0.426418    0.838179
H      -1.025296   -0.271596   -0.252458
H       0.532071    0.013943   -2.184832
H       2.946774   -0.546374   -1.924009
H       2.545123    0.912062   -1.022236
H       2.750252   -0.619325   -0.161879
H       1.066562   -2.552933   -0.605138
H      -0.432600   -2.207887   -1.435718
H       2.245680   -4.266638   -2.078555
H       0.555471   -4.588265   -2.461353
H       1.859248   -3.620478   -4.609133
