14

C      -0.207630   -1.248957   -0.251687
C      -0.135472   -0.067716   -0.051302
C      -0.035231    1.366647    0.162282
N      -0.469876    1.797448    1.509856
C       0.372528    2.672683    1.890419
N       1.403143    3.007818    1.017263
C       1.426464    1.958679   -0.010863
C       2.512314    0.995266    0.221769
N       3.405587    0.288560    0.416025
H      -0.266465   -2.296809   -0.415852
H      -0.675719    1.879667   -0.568132
H       0.297665    3.203514    2.834683
H       2.288908    3.298852    1.408014
H       1.553921    2.381537   -1.010239
