19

C      -0.020409    1.543808    0.061114
C       1.285520    0.765623    0.006837
C      -0.032562    0.056599   -0.014229
C      -0.539431   -0.991181    0.976879
O      -1.963694   -0.926092    0.779687
C      -1.975192   -1.378156   -0.585747
C      -1.465475   -2.830130   -0.448250
C      -0.156289   -2.118356   -0.078377
C      -0.516947   -0.934442   -1.054610
H      -0.296154    2.012404    1.000368
H      -0.311139    2.107805   -0.819527
H       1.867674    0.807217   -0.908453
H       1.885499    0.718167    0.910543
H      -0.284484   -1.013322    2.035400
H      -2.899770   -1.093793   -1.084655
H      -1.973254   -3.463374    0.283241
H      -1.373291   -3.339738   -1.411513
H       0.826110   -2.581105   -0.019903
H      -0.274452   -0.912214   -2.115378
