16

C      -0.000200    1.511004    0.004275
C       0.016363    0.007316    0.027592
N       0.131040   -0.602426   -1.166964
C       0.149923   -1.929372   -1.193793
C       0.057404   -2.735192   -0.050331
C       0.084554   -4.208321   -0.149083
O       0.184798   -4.830098   -1.180957
C      -0.061136   -2.096629    1.183251
C      -0.082029   -0.710086    1.224225
H       0.918395    1.890595   -0.454507
H      -0.831672    1.868896   -0.611316
H      -0.095262    1.934213    1.006702
H       0.243010   -2.405992   -2.166009
H       0.003138   -4.731451    0.831399
H      -0.135648   -2.683020    2.095433
H      -0.173108   -0.182127    2.166827
