18

C       0.692272    1.770363    0.214626
C       1.337114    0.470010   -0.192167
C      -0.163396    0.566140   -0.085171
N      -0.738992   -0.079016    1.064620
C      -2.059078   -0.028536    1.613795
C      -3.224446   -0.314256    0.583742
O      -2.672217   -0.475389   -0.726290
C      -2.601370   -1.572305    0.189623
C      -1.412960   -1.333113    1.205122
H       0.778404    2.062989    1.254555
H       0.676334    2.592004   -0.492549
H       1.770126    0.386277   -1.182589
H       1.847812   -0.093523    0.579917
H      -0.730851    0.572631   -1.005430
H      -2.229364    0.379133    2.604759
H      -4.264361   -0.023457    0.669325
H      -3.027373   -2.521071   -0.113157
H      -0.991635   -2.120103    1.821833
