16

C      -0.057045   -1.211554    0.227642
C      -0.061632   -0.019627    0.074495
C      -0.032653    1.428946   -0.123166
C       1.367496    1.991681   -0.092802
C       2.092392    2.422177    1.166660
C       1.900037    3.399666    0.046189
O       2.892572    3.211910   -0.964192
C       2.394056    1.868885   -1.217303
H      -0.062691   -2.264141    0.366817
H      -0.510245    1.672856   -1.081987
H      -0.638905    1.916654    0.650799
H       1.446704    2.564722    2.028571
H       3.090731    2.057120    1.392682
H       1.424176    4.371137    0.121190
H       3.173427    1.105097   -1.118184
H       1.941356    1.810977   -2.214538
