20

C      -0.374531    1.486421    0.044678
C       0.068813    0.035201    0.004155
C       1.075797   -0.480401   -1.053985
O       2.027987    0.513927   -1.408431
C       2.758108    0.839504   -0.218831
C       2.375356   -0.226326    0.789848
N       0.939539   -0.495533    1.123869
C       1.687054   -1.324646    0.095219
C       1.914006   -2.799672    0.185027
H       0.441483    2.183013   -0.152393
H      -1.149639    1.664542   -0.708415
H      -0.799391    1.716180    1.027442
H      -0.814995   -0.613463    0.010335
H       0.707560   -0.949704   -1.966566
H       3.833964    0.797979   -0.434768
H       2.520954    1.856950    0.115340
H       3.036705   -0.420998    1.627407
H       1.004084   -3.361376   -0.052928
H       2.696909   -3.117775   -0.512829
H       2.224271   -3.077155    1.196698
