21

C       0.038836    1.548891    0.055129
C      -0.024029    0.021678   -0.020471
C       0.691645   -0.550818   -1.236308
O       2.072050   -0.162388   -1.168505
C       2.793890   -0.616033   -2.282103
O       2.811443   -2.018177   -2.375882
C       1.488572   -2.531451   -2.522918
C       0.636230   -2.088882   -1.327984
O       1.100362   -2.696961   -0.135546
H       1.075518    1.892684    0.091384
H      -0.437216    2.011561   -0.817055
H      -0.474904    1.916259    0.948388
H       0.413218   -0.429603    0.875088
H      -1.067857   -0.314201   -0.059868
H       0.252015   -0.130282   -2.159100
H       2.365954   -0.186014   -3.207845
H       3.827895   -0.289642   -2.153861
H       1.044799   -2.181094   -3.469387
H       1.575960   -3.619759   -2.551448
H      -0.400213   -2.417717   -1.464267
H       2.028827   -2.445029   -0.053846
