19

C      -0.214663    1.453600    0.007963
C       0.085902   -0.034473    0.110555
C       1.147009   -0.683796   -0.863282
C       1.914195   -1.196569    0.368093
C       2.377385   -0.119976    1.313021
C       0.930031   -0.549296    1.298776
O       0.537820   -1.530523    2.219173
C       0.904261   -2.771705    1.609454
O       2.041615   -2.530299    0.774566
H       0.700686    2.052834    0.060006
H      -0.710238    1.688380   -0.940298
H      -0.871531    1.777904    0.821787
H      -0.844889   -0.607943    0.069970
H       0.731831   -1.490793   -1.469564
H       1.702509   -0.001448   -1.514511
H       2.936597   -0.478501    2.167889
H       2.674476    0.854259    0.933849
H       1.179239   -3.485725    2.390046
H       0.067548   -3.161833    1.007222
