18

C      -0.367793    1.816660   -0.006320
C       0.101837    0.358766    0.021013
C      -1.088690   -0.618978    0.093860
O      -1.862683   -0.601069   -1.098873
N       0.963173    0.121581   -1.144150
C       1.781277   -1.082752   -1.055984
C       2.654937   -1.203201   -2.228131
N       3.331623   -1.315100   -3.157340
H       0.490438    2.491162   -0.025715
H      -0.962205    2.019510   -0.904776
H      -0.981986    2.050380    0.869524
H       0.713816    0.205735    0.920721
H      -0.730856   -1.648857    0.196875
H      -1.703021   -0.401330    0.980146
H      -2.399730    0.196956   -1.098123
H       0.368863    0.061824   -1.967177
H       2.417024   -1.010664   -0.164667
H       1.220575   -2.029569   -0.965243
