15

C       0.001577   -1.143897   -0.059593
C       0.044889    0.056277   -0.007895
C       0.031450    1.478684    0.079236
O       0.340023    2.252896   -1.105215
C       1.177283    2.402279    0.045427
C       0.683118    3.448179    1.079578
C      -0.781703    3.712701    0.665204
C      -0.845267    2.240598    1.125340
O       0.170615    2.560063    2.136021
H      -0.020426   -2.204628   -0.109925
H       2.214077    2.102711   -0.055745
H       1.376839    4.208521    1.434094
H      -1.275349    4.361914    1.386909
H      -1.017023    3.970081   -0.364945
H      -1.729100    1.740905    1.516338
