25

C      -0.303113    1.733388   -0.285392
C       0.204948    0.317837   -0.008364
C       0.886106   -0.337838   -1.211282
C       1.380968   -1.757418   -0.899436
O       0.299084   -2.623109   -0.616676
O      -0.079340   -0.427095   -2.266206
C       0.433518   -0.379634   -3.601459
C      -0.558881   -1.130946   -4.482554
C       0.627703    1.068758   -4.055316
H       0.518555    2.406692   -0.556490
H      -1.020896    1.731648   -1.109351
H      -0.796250    2.152333    0.597001
H       0.925255    0.330481    0.818938
H      -0.618644   -0.330192    0.308916
H       1.739156    0.280357   -1.530574
H       1.979075   -2.133799   -1.746184
H       2.033438   -1.747702   -0.019298
H      -0.367999   -2.417076   -1.284613
H       1.403112   -0.899230   -3.636318
H      -0.650729   -2.172712   -4.162463
H      -1.547168   -0.664387   -4.419817
H      -0.236653   -1.117506   -5.527977
H       1.313507    1.606691   -3.394411
H       1.042512    1.102711   -5.067994
H      -0.330901    1.597148   -4.055262
