15

C      -0.413878    0.946549    0.044218
O       0.618905   -0.024122   -0.099531
C       1.023473   -0.596185    1.101560
C       0.123493   -1.627901    1.777683
O      -1.118703   -1.915443    1.224065
C       1.334157   -2.069125    0.978952
O       1.022243   -2.664327   -0.249770
H      -0.073597    1.790533    0.659790
H      -0.643770    1.311273   -0.959491
H      -1.306349    0.500440    0.493053
H       1.657730    0.032411    1.727842
H       0.144208   -1.688673    2.862610
H      -0.935585   -2.505813    0.476335
H       2.208454   -2.495673    1.460745
H       0.931314   -1.936372   -0.882499
