17

C      -0.011606    1.552112   -0.175114
C      -0.065663    0.037832    0.038194
N      -1.417452   -0.494938    0.014541
C      -2.123390   -0.835992    1.176790
O      -1.726371   -0.751629    2.325521
N      -3.338423   -1.281642    0.706364
C      -3.398308   -1.225827   -0.700859
C      -2.204989   -0.736646   -1.098520
O      -1.671126   -0.460554   -2.311266
H       1.025115    1.900406   -0.131000
H      -0.422831    1.824357   -1.151066
H      -0.581154    2.070002    0.601671
H       0.526444   -0.478588   -0.723686
H       0.331739   -0.226414    1.021354
H      -4.060275   -1.608176    1.322186
H      -4.264903   -1.525552   -1.261454
H      -2.307873   -0.697993   -2.992948
