21

C       0.156581    1.441045    0.028419
C       0.110694   -0.074764   -0.011538
C      -1.190560   -0.676111   -0.522582
C      -1.466710   -0.410562   -2.017620
O      -0.508991   -1.017364   -2.842308
C      -2.854021   -0.890758   -2.387440
O      -3.038762   -1.683429   -3.279855
C       1.390298   -0.818608   -0.303744
C       0.819116   -0.827991    1.093411
H       1.102885    1.791042    0.451525
H       0.069199    1.879142   -0.972477
H      -0.653992    1.849226    0.644835
H      -1.179621   -1.762404   -0.376370
H      -2.030436   -0.278696    0.065713
H      -1.476573    0.683671   -2.180939
H      -1.013202   -1.568989   -3.461591
H      -3.694048   -0.474375   -1.794082
H       1.323014   -1.720742   -0.898993
H       2.285791   -0.233907   -0.485754
H       1.324230   -0.248922    1.859429
H       0.371686   -1.746861    1.458595
