16

C       0.134634    1.466069    0.008862
C      -0.063590   -0.003204   -0.024927
C      -1.129639   -0.822304   -0.105100
C      -0.637987   -2.184081   -0.088697
C      -1.406177   -3.402824   -0.138195
O      -2.618031   -3.469398   -0.212194
C       0.736158   -2.065168   -0.000597
N       1.761738   -2.971189   -0.014153
O       1.103145   -0.773945    0.039785
H       0.746413    1.812640   -0.832298
H      -0.835352    1.964820   -0.046218
H       0.633192    1.788028    0.930791
H      -2.166933   -0.534938   -0.166252
H      -0.795821   -4.338863   -0.100948
H       1.513324   -3.913873    0.243103
H       2.619640   -2.647887    0.409015
