13

C       0.027755    1.462569    0.009739
C       0.017789    0.012195   -0.000572
C       0.007470   -1.194967   -0.008659
C      -0.018232   -2.630178   -0.018264
O      -1.026126   -3.302122   -0.021958
C       1.373545   -3.309620   -0.023958
O       2.392834   -2.659163   -0.020631
C       1.346705   -4.753987   -0.033386
C       1.357449   -5.957354   -0.041245
H       1.049395    1.854105   -0.017579
H      -0.516328    1.858369   -0.854676
H      -0.462683    1.844176    0.911905
H       1.363957   -7.020573   -0.048188
