18

C      -0.283768    1.295973   -0.559210
O      -0.341191   -0.112250   -0.544544
C      -1.011221   -0.603264    0.599250
C      -1.041628   -2.059911    0.574698
C      -1.064987   -3.262946    0.582399
C      -1.115759   -4.717779    0.553961
C      -2.092977   -5.237024   -0.533260
C      -2.152953   -6.696227   -0.565023
N      -2.186495   -7.851199   -0.572653
H       0.245476    1.587274   -1.468866
H      -1.288904    1.746929   -0.570894
H       0.259973    1.692764    0.312878
H      -0.507890   -0.258713    1.519859
H      -2.041801   -0.208544    0.641443
H      -0.117856   -5.129363    0.364930
H      -1.428112   -5.104156    1.530863
H      -3.096860   -4.841966   -0.348727
H      -1.781692   -4.869672   -1.516104
