19

C      -0.063156    1.591764   -0.079155
C       0.019359    0.060342   -0.008298
C       0.723058   -0.500250   -1.246073
O      -0.029061   -0.140250   -2.396527
C       0.720633   -0.448092    1.260961
C      -0.010825   -0.121628    2.557716
O       0.695554   -0.752347    3.617506
H       0.934967    2.038483    0.011534
H      -0.486870    1.902660   -1.036562
H      -0.686455    2.004606    0.719159
H      -1.003846   -0.341644   -0.025976
H       1.748242   -0.096476   -1.299613
H       0.805437   -1.595279   -1.157517
H       0.454735   -0.428939   -3.175261
H       0.829583   -1.538774    1.213713
H       1.736451   -0.035763    1.320749
H      -0.057606    0.966887    2.711269
H      -1.049357   -0.488283    2.498191
H       0.265699   -0.518131    4.445033
