14

C      -0.091129    1.517394   -0.069151
C      -0.007525    0.017252    0.028891
N       1.293758   -0.600210   -0.185237
C       0.706322   -0.664018    1.183830
C       1.368696    0.087662    2.217874
C       1.896466    0.714789    3.095382
C       0.152786   -1.934435    1.605694
N      -0.286376   -2.958482    1.915621
H       0.802762    1.983738    0.348580
H      -0.179653    1.815484   -1.118737
H      -0.968807    1.889384    0.467953
H      -0.881439   -0.526315   -0.326352
H       1.208182   -1.511126   -0.631155
H       2.373658    1.264482    3.869167
