20

C       0.961030    1.207247    0.021801
N       0.017894    0.092506   -0.010253
C       0.197428   -0.804818   -1.174615
C       1.111011   -1.976795   -0.743924
C       2.564776   -1.941699   -1.262373
O       3.289694   -3.076540   -0.855361
C       1.097811   -1.884558    0.782919
O       1.785931   -2.537730    1.534129
C       0.119178   -0.771355    1.166018
H       2.024979    0.913747    0.088552
H       0.835031    1.810622   -0.881748
H       0.737068    1.845747    0.881589
H      -0.783087   -1.187105   -1.481587
H       0.604752   -0.240528   -2.017825
H       0.699166   -2.951122   -1.031179
H       2.558757   -1.937982   -2.358060
H       3.050932   -1.005424   -0.938447
H       3.159183   -3.160860    0.100366
H       0.438042   -0.233866    2.061103
H      -0.853455   -1.238618    1.386556
