15

C       0.028982    1.514757    0.049057
C       0.024645    0.008635    0.012510
C      -0.045683   -0.711299   -1.179623
C      -0.046331   -2.101164   -1.155654
N       0.018277   -2.811734   -0.025783
C       0.085768   -2.136408    1.118651
C       0.092130   -0.741625    1.192876
O       0.164950   -0.179503    2.431893
H       0.942798    1.909526    0.512651
H      -0.029006    1.930284   -0.959192
H      -0.823817    1.912123    0.615322
H      -0.099935   -0.183012   -2.126640
H      -0.100957   -2.667592   -2.081432
H       0.138555   -2.708749    2.041631
H       0.161760    0.779452    2.353164
