14

O      -0.065289    0.026346   -0.677022
C      -0.007630    1.074505   -0.085680
C       1.264462    1.816649    0.131176
C       1.221014    3.322432    0.083821
N       1.514413    2.645615    1.322476
C       0.525117    2.699386    2.399012
C       0.862746    3.788749    3.322478
N       1.105123    4.653051    4.048589
H      -0.925325    1.558090    0.317531
H       2.142442    1.294653   -0.238680
H       2.041938    3.858333   -0.382479
H       0.240625    3.784946   -0.032984
H      -0.511232    2.857967    2.065249
H       0.551914    1.752257    2.948873
