17

C       0.004115    1.537427    0.034334
C       0.017364    0.038643    0.005303
C      -0.912269   -0.829998    0.884250
C      -1.493032   -2.081968    0.296120
C      -0.514395   -2.811353   -0.244367
C       0.789382   -2.050114   -0.134279
C       0.563381   -1.018547    1.016201
C       0.678059   -0.786100   -1.048271
O       1.206615   -0.488823   -2.084961
H       0.952212    1.939846   -0.336078
H      -0.795015    1.933151   -0.601445
H      -0.160882    1.914580    1.048649
H      -1.453303   -0.258363    1.631375
H      -2.551378   -2.306781    0.298750
H      -0.619014   -3.730999   -0.804631
H       1.721420   -2.607032   -0.208008
H       1.188991   -0.837174    1.880420
