16

O      -0.135675    0.051190    0.448667
C      -0.085524    1.168998    0.074002
O      -1.178512    2.019747   -0.258140
C      -0.204552    2.862462   -1.037667
C       0.685248    4.179952   -1.024996
C       0.745950    4.644986    0.420791
C       0.926236    3.246060    1.071578
C       0.892109    2.355861   -0.206625
N       1.884307    3.195318   -1.075134
H      -0.228802    2.471421   -2.057315
H       0.624681    4.905928   -1.836082
H       1.594463    5.309182    0.592470
H      -0.170867    5.151112    0.730806
H       1.891975    3.120732    1.564262
H       0.134164    2.998977    1.779216
H       1.914461    2.788426   -2.012191
