17

O       0.066158    1.127048   -0.713204
C       0.058985   -0.205040   -0.246006
C      -1.343538   -0.584082    0.224146
N      -2.322336   -0.414528   -0.897224
C      -2.614848   -1.872893   -0.940012
C      -2.115044   -2.521573   -2.152332
N      -1.650963   -3.060081   -3.064449
C      -1.690654   -2.101301    0.318567
O      -0.694149   -3.070505    0.278782
H      -0.615250    1.160936   -1.397838
H       0.398618   -0.901098   -1.030027
H       0.770525   -0.267561    0.582730
H      -1.595505   -0.002479    1.116522
H      -3.140658    0.127469   -0.647963
H      -3.663601   -2.148004   -0.794380
H      -2.297576   -2.325287    1.198254
H      -0.260212   -3.056331   -0.583102
