18

C      -0.183493    1.506319    0.221249
C       0.150411    0.064028   -0.135048
O       1.261349   -0.316984   -0.394273
N      -0.982714   -0.765933   -0.125874
C      -1.049936   -2.138794   -0.404126
O      -0.093592   -2.813167   -0.701582
C      -2.434778   -2.697050   -0.296980
C      -2.786642   -3.827768   -1.249145
C      -2.552685   -4.130952    0.192029
H       0.734708    2.091442    0.194510
H      -0.903065    1.928432   -0.488709
H      -0.624744    1.570111    1.221880
H      -1.855746   -0.319255    0.109020
H      -3.231802   -2.013123   -0.023744
H      -3.799157   -3.851707   -1.634896
H      -2.008152   -4.107011   -1.949246
H      -1.617875   -4.612375    0.453822
H      -3.399722   -4.369228    0.824719
