17

O      -0.030279    1.340517    0.398583
C      -0.105644   -0.012745    0.169126
C       0.790507   -0.780890   -0.805817
N      -0.321621   -1.762054   -1.085190
C      -1.244550   -0.940268   -0.275565
C      -0.752368   -0.962232    1.142167
N      -0.074523   -2.093819    1.695508
C       0.905345   -1.913381    2.619158
O       1.199260   -0.836805    3.101636
H       0.371290    1.457717    1.269320
H       1.035182   -0.167177   -1.676873
H       1.702244   -1.239707   -0.408665
H      -0.581300   -1.723389   -2.065280
H      -2.283182   -0.789241   -0.544898
H      -1.404781   -0.439151    1.837349
H      -0.142118   -2.969716    1.198579
H       1.400644   -2.861930    2.904245
