12

C       0.092053   -1.198860   -0.005210
C       0.050912    0.003302    0.002561
C      -0.013236    1.414219    0.011052
C      -1.162470    2.198484    0.031167
N      -0.709048    3.502786    0.031993
C       0.647560    3.454358    0.012981
N       1.100890    2.222062    0.000011
C      -2.529762    1.862917    0.048245
N      -3.659343    1.603492    0.062463
H       0.128541   -2.260320   -0.012674
H      -1.291685    4.324704    0.044527
H       1.254509    4.347371    0.009445
