20

C      -0.258317    1.571894   -0.028357
C      -0.036671    0.061373   -0.000409
C      -1.363548   -0.679983   -0.199946
C       1.087396   -0.558035   -0.887393
N       1.679730   -1.310313    0.282233
C       2.189392   -0.282110    1.233120
C       2.865339    0.916088    0.820939
C       3.503295    1.886885    0.506123
C       0.726504   -0.552682    1.183336
H       0.672228    2.125033    0.106658
H      -0.698935    1.873931   -0.985695
H      -0.954167    1.874687    0.762582
H      -1.803733   -0.424917   -1.170209
H      -1.225325   -1.765285   -0.164234
H      -2.086004   -0.405086    0.577094
H       0.728475   -1.265394   -1.637432
H       1.787719    0.141553   -1.351284
H       2.684332   -0.775671    2.067962
H       4.052010    2.752652    0.228039
H       0.244772   -1.037972    2.029804
