16

N       0.001279   -1.186558    0.317612
C      -0.027205   -0.051842    0.104452
C      -0.067374    1.390569   -0.152410
C       1.304873    2.011956   -0.236541
C       2.157115    2.343636    0.973462
C       1.659373    3.437809    0.042555
O       2.493643    3.862010   -1.002603
C       2.939388    2.687281   -1.658739
O       1.978399    1.671327   -1.425328
H      -0.603566    1.569192   -1.090899
H      -0.638668    1.868920    0.649865
H       1.672927    2.281535    1.942640
H       3.206020    2.070751    0.978645
H       0.974299    4.209261    0.370899
H       3.013132    2.876542   -2.733473
H       3.919563    2.378851   -1.262976
