11

O      -0.049655    1.320557    0.009672
C       1.252783    1.780682   -0.000227
C       2.137912    0.764688   -0.014388
N       1.364670   -0.400064   -0.013398
C       1.299276   -1.773227   -0.020240
N       0.040038   -2.147445   -0.010217
N      -0.781301   -1.025756    0.003756
C       0.050110   -0.025935    0.001284
H       1.378252    2.849331    0.004503
H       3.213182    0.773835   -0.024684
H       2.156330   -2.425131   -0.032039
