23

C      -0.130720    1.665958    0.075529
C      -0.075100    0.137071    0.020421
C       0.710526   -0.473896    1.187152
C       0.776756   -2.006951    1.155268
C       1.544329   -2.495845   -0.062463
O       1.409969   -3.580814   -0.572256
C       1.454628   -2.576404    2.438334
C       1.240221   -4.076139    2.621260
O       2.839794   -2.230731    2.478809
H       0.874737    2.099621    0.041349
H      -0.699592    2.075280   -0.764837
H      -0.606681    2.010452    1.000363
H      -1.095168   -0.269473    0.020926
H       0.370459   -0.175583   -0.933705
H       1.734491   -0.078625    1.202299
H       0.252610   -0.159759    2.133641
H      -0.232354   -2.433726    1.097548
H       2.301188   -1.777811   -0.454958
H       1.010203   -2.046269    3.289744
H       1.607945   -4.637744    1.756220
H       1.765259   -4.417407    3.518323
H       0.176910   -4.308463    2.734253
H       3.332375   -2.924605    2.027498
