19

O       0.283140    1.353125    0.347731
C       0.082015   -0.027549    0.064299
C      -1.410048   -0.397520    0.067316
C      -1.630873   -1.865686   -0.304010
C      -2.865477   -2.159470   -1.184360
O      -2.050549   -2.281196   -2.369338
C      -0.840515   -2.304522   -1.559757
C       0.253933   -1.401770   -2.024026
C       0.708600   -0.410906   -1.257310
H      -0.132045    1.857061   -0.361521
H       0.593255   -0.544759    0.887432
H      -1.850542   -0.162517    1.040937
H      -1.903044    0.242885   -0.676074
H      -1.504124   -2.515111    0.565230
H      -3.377813   -3.101544   -0.946050
H      -3.609141   -1.359176   -1.275439
H      -0.467258   -3.338047   -1.489153
H       0.704034   -1.618785   -2.989647
H       1.554864    0.198641   -1.565554
