16

C      -0.081969    1.405314   -0.043304
N      -0.048663   -0.039226   -0.122385
C      -1.232538   -0.869323    0.033500
C      -0.580911   -2.272984   -0.095226
O       0.793028   -2.076765    0.233586
C       1.103534   -0.747107    0.146039
O       2.215774   -0.316459    0.275935
C      -1.929432   -0.656572    1.306892
C      -2.498423   -0.478229    2.350205
H       0.950735    1.755950   -0.057124
H      -0.620188    1.826540   -0.899078
H      -0.566343    1.744653    0.880347
H      -1.937033   -0.699172   -0.789628
H      -1.011257   -3.001849    0.591403
H      -0.657726   -2.640678   -1.124071
H      -2.999798   -0.324295    3.274299
