19

C      -0.114198    1.669231   -0.164607
C       0.043543    0.161503   -0.004473
O       1.075057   -0.325917   -0.855560
C       2.127217   -0.840134   -0.019423
C       1.494765   -1.050042    1.348507
C       0.332685   -0.409329    1.353913
C      -1.123194   -0.602713    1.697082
C      -1.328869   -0.598545    0.122288
O      -2.436941    0.073422   -0.415013
H       0.837083    2.167249    0.042202
H      -0.416544    1.900341   -1.189439
H      -0.878501    2.069710    0.505886
H       2.484130   -1.788863   -0.441741
H       2.980902   -0.143207   -0.015338
H       1.896229   -1.733739    2.086154
H      -1.400092   -1.495268    2.260969
H      -1.605154    0.277450    2.133119
H      -1.215703   -1.615107   -0.274337
H      -3.220248   -0.468932   -0.279551
