19

O      -0.600063    0.505159   -0.204328
C      -0.152085    1.624621   -0.220110
C       1.301440    1.967473   -0.023842
C       1.840569    3.083467   -0.977885
C       1.996440    4.051674    0.231860
C       0.871868    5.029558    0.443682
C       0.062034    4.673716    1.442354
C       0.488455    3.387398    2.115633
C       1.638822    2.888799    1.213587
H      -0.816305    2.501656   -0.397206
H       1.865893    1.033708   -0.037313
H       2.785872    2.806319   -1.449283
H       1.148879    3.411483   -1.759782
H       2.981810    4.519450    0.324518
H       0.754349    5.920476   -0.164952
H      -0.805549    5.237434    1.769211
H       0.830260    3.573061    3.142656
H      -0.330729    2.662231    2.201142
H       2.472336    2.478184    1.783959
