18

C      -0.004873    1.524666    0.007720
C      -0.205786    0.009522   -0.104736
C       0.623654   -0.590500   -1.234307
N       2.084286   -0.592729   -1.009039
C       2.277274   -1.935928   -1.166101
O       3.241452   -2.649048   -1.143749
C       0.740687   -2.139487   -1.408794
C       0.067041   -3.127723   -0.496562
O      -0.800063   -2.885479    0.303854
H       1.035354    1.776119    0.243779
H      -0.268403    2.035072   -0.925778
H      -0.628866    1.942546    0.802636
H       0.051662   -0.479603    0.837990
H      -1.259925   -0.218580   -0.291302
H       0.361602   -0.102829   -2.182487
H       2.756984    0.156915   -0.942029
H       0.584591   -2.476954   -2.440296
H       0.458144   -4.161024   -0.627382
