18

N      -0.431783    1.084231    0.147466
C      -0.676988   -0.080712   -0.270325
O      -0.399537   -1.143485    0.518666
C      -0.740661   -2.428476   -0.007438
C      -2.201958   -2.720022    0.076721
C      -2.981653   -3.066830    1.305972
C      -3.016821   -3.997222    0.109482
C      -3.838448   -3.344396   -0.996162
O      -3.063977   -2.115537   -0.901733
H      -0.686526    1.765004   -0.565266
H      -1.108386   -0.354368   -1.240876
H      -0.400231   -2.514890   -1.047423
H      -0.185833   -3.148039    0.599692
H      -2.397604   -3.428410    2.146278
H      -3.850342   -2.469922    1.568475
H      -2.704540   -5.031924    0.149532
H      -3.704682   -3.805990   -1.980576
H      -4.904833   -3.178458   -0.804930
