18

C      -0.327391    1.429853   -0.070184
C       0.130034   -0.017050   -0.071324
N       0.910729   -0.538181   -1.263726
C       2.212210    0.125338   -1.233520
C       2.015324   -1.043449   -0.326712
C       2.639330   -2.398084   -0.502287
O       1.676479   -3.428724   -0.387393
C       1.231987   -0.559008    0.869239
O       1.333982   -0.703490    2.051703
H       0.499695    2.135777   -0.181265
H      -1.040843    1.606573   -0.880979
H      -0.826227    1.650445    0.878285
H      -0.736867   -0.678725    0.049377
H       2.811735   -0.050149   -2.122351
H       2.306930    1.126144   -0.821628
H       3.170869   -2.441706   -1.465381
H       3.373965   -2.567632    0.291812
H       0.997151   -3.243179   -1.046362
