21

C      -0.059594    1.479800    0.091254
N      -0.006401    0.023864   -0.050570
C       0.652637   -0.488628   -1.256430
C      -0.040037    0.026557   -2.530696
C       2.082137   -0.067724   -1.285531
N       3.169694    0.320728   -1.223832
C       0.623913   -2.044300   -1.184562
C      -0.785800   -2.629891   -1.155016
O       1.364792   -2.499582   -2.305571
H       0.918196    1.974266   -0.015764
H      -0.744939    1.905695   -0.646220
H      -0.457552    1.712885    1.082119
H       0.465622   -0.364726    0.760542
H       0.164596    1.086441   -2.692515
H       0.328223   -0.531093   -3.392843
H      -1.119913   -0.110661   -2.439720
H       1.144496   -2.321341   -0.252223
H      -0.732460   -3.712950   -0.997463
H      -1.370955   -2.190831   -0.344489
H      -1.301683   -2.452591   -2.102277
H       1.405037   -3.459921   -2.272579
