20

C       0.017664    1.465136    0.066863
C       0.001572    0.011403    0.008573
C      -0.019267   -1.193366   -0.026736
C      -0.009173   -2.617940   -0.111858
C       0.706072   -3.428361   -1.223658
C      -0.453126   -4.468757   -1.195369
C      -1.136714   -3.652019   -0.084912
N      -0.296827   -3.426286    1.063615
C       0.631817   -4.416580    1.585657
H       0.914265    1.872311   -0.413991
H      -0.853471    1.896876   -0.439040
H       0.008452    1.820436    1.103361
H       0.743359   -2.873636   -2.162265
H       1.713543   -3.781116   -0.985214
H      -1.030570   -4.468376   -2.121948
H      -0.197031   -5.502954   -0.946896
H      -2.204649   -3.491728    0.022260
H       1.154793   -5.019196    0.830213
H       1.384048   -3.902338    2.191203
H       0.078852   -5.098285    2.239528
