15

O       0.229456    1.146088    0.509802
C       0.053900   -0.181086    0.142286
C      -1.365304   -0.719518   -0.015366
C      -2.506232    0.259514    0.055569
O      -2.988510    0.619461   -1.264507
C      -2.113859    0.998094   -2.204523
O      -2.428271    1.621638   -3.169860
O      -0.802211    0.644392   -2.001941
C      -0.492543   -0.488288   -1.218996
H       0.341873    1.663903   -0.297473
H       0.797356   -0.857434    0.555370
H      -1.562025   -1.744185    0.276644
H      -3.377085   -0.164169    0.554612
H      -2.206060    1.175216    0.572932
H      -0.109804   -1.309220   -1.815594
