16

N       0.017821    1.342352    0.087279
C       0.005360   -0.034202   -0.001892
N      -1.071647   -0.728773    0.049863
C      -0.732714   -2.151869    0.059377
C       0.794577   -2.249355   -0.029428
O       1.479794   -3.234428   -0.099244
C       1.272912   -0.815225   -0.042510
C       2.542407   -0.398071   -0.708295
N       2.479423   -0.463954    0.745231
H       0.702322    1.820178   -0.481225
H      -0.905271    1.749943    0.012822
H      -1.095917   -2.643102    0.971530
H      -1.200795   -2.676693   -0.782578
H       3.136449   -1.181293   -1.171250
H       2.574865    0.568064   -1.207748
H       2.339051    0.466686    1.136707
