23

O      -0.041230    1.358131    0.097159
C       0.017038   -0.058039    0.024486
C      -1.410914   -0.586644    0.055796
C      -1.478546   -2.113966   -0.018514
C      -2.909012   -2.634130    0.010058
O      -2.881338   -4.045925   -0.060075
C      -4.161395   -4.648973   -0.027826
C      -3.934181   -6.150740    0.048819
O      -3.188791   -6.498696    1.198409
H       0.858057    1.697883    0.080532
H       0.515664   -0.390634   -0.900883
H       0.587257   -0.478596    0.869189
H      -1.891733   -0.227366    0.973956
H      -1.962189   -0.138966   -0.780356
H      -0.995909   -2.473207   -0.935676
H      -0.929280   -2.560550    0.819792
H      -3.419851   -2.309095    0.932242
H      -3.483411   -2.224112   -0.837775
H      -4.721194   -4.308245    0.858151
H      -4.745018   -4.384997   -0.925304
H      -4.896607   -6.668883    0.113698
H      -3.431810   -6.484091   -0.873572
H      -2.436308   -5.895153    1.208207
