18

C      -0.045460    1.527253   -0.085196
C      -0.028501    0.012254    0.034119
N       1.290145   -0.635724   -0.152309
C       0.669158   -0.692415    1.191050
C       1.383880    0.083478    2.285068
C       0.129765   -1.954298    1.633928
C      -0.274086   -3.008865    2.047560
C      -1.184082   -0.627260   -0.544736
C      -2.152816   -1.111312   -1.067752
H       0.886539    1.962690    0.275164
H      -0.166611    1.808202   -1.135468
H      -0.882748    1.949685    0.477919
H       1.167898   -1.529708   -0.623081
H       1.857424    0.981456    1.888242
H       0.685357    0.364407    3.078628
H       2.163947   -0.544059    2.725957
H      -0.647388   -3.939795    2.396305
H      -3.006331   -1.557294   -1.515211
