14

O      -0.010674   -0.010789   -0.050553
C      -0.042856    1.191157   -0.011211
C      -1.237610    2.073327    0.107653
C      -0.883848    3.362576    0.038011
C       0.601559    3.516594   -0.063958
N       1.287521    2.972984    1.133057
C       1.168058    2.139486   -0.114267
C       2.330905    1.770422   -0.850860
C       3.311431    1.440453   -1.463610
H      -2.232858    1.671868    0.244105
H      -1.554593    4.211277    0.099453
H       1.051486    4.337037   -0.610078
H       2.245523    3.326751    1.156739
H       4.173708    1.142543   -2.007332
