14

O      -0.014448   -0.042647    0.127503
C       0.002871    1.162103    0.038210
N      -1.116366    1.938778    0.093088
C      -1.138055    3.362077    0.006776
C      -0.610363    4.200581    1.163469
C       0.192803    4.029569   -0.097824
O       1.373286    3.264012   -0.103203
C       1.356183    1.903970   -0.124973
O       2.378736    1.300199   -0.231016
H      -1.973923    1.440106    0.288876
H      -1.953450    3.754425   -0.592832
H      -1.055712    5.169399    1.358734
H      -0.275274    3.653309    2.037578
H       0.304269    4.876572   -0.764564
