14

O       0.151883    1.387422   -0.108112
C       0.117527   -0.007183   -0.099755
C       0.158961   -0.640802    1.323538
O      -1.261262   -0.240435    1.453935
C      -1.313615   -0.612330    0.021007
C      -1.079958   -2.133965    0.101848
O       0.237137   -2.555280   -0.290674
C       0.017261   -2.155180    1.072369
H      -0.456476    1.676064    0.585975
H       0.791107   -0.373802   -0.869285
H       0.795056   -0.276828    2.129156
H      -2.182656   -0.219255   -0.504706
H      -1.873231   -2.868016    0.020876
H       0.178349   -2.907682    1.835561
