23

C      -0.196032    1.569102   -0.064810
C       0.004193    0.045757    0.005463
C       0.770094   -0.468335   -1.231332
C       2.259364   -0.252823   -1.126088
C       2.883389    0.019193    0.019499
C       2.174249    0.126117    1.342369
C       0.741934   -0.431559    1.278433
C      -0.035179   -0.152987    2.561620
O       0.624393   -0.826419    3.627408
H       0.759442    2.099354   -0.120094
H      -0.769902    1.834189   -0.959061
H      -0.745527    1.952183    0.800410
H      -0.991142   -0.418359    0.002921
H       0.567721   -1.539896   -1.376524
H       0.387931    0.023950   -2.135382
H       2.833123   -0.335678   -2.046487
H       3.959920    0.175581    0.023694
H       2.733162   -0.406811    2.118817
H       2.157936    1.177309    1.671458
H       0.821923   -1.525310    1.205696
H      -0.079698    0.930236    2.754754
H      -1.072064   -0.511432    2.450599
H       0.184319   -0.592347    4.449400
