16

O      -0.053427    0.019261    0.133855
C       0.015049    1.208657    0.002173
N      -0.956490    2.208996   -0.053278
C      -0.059279    3.347556   -0.229915
C       0.413470    4.085781    1.060921
C       1.542506    3.040381    1.229823
C       2.838829    3.229253    0.396736
O       2.360487    2.342018   -0.660013
C       1.099432    2.288566   -0.059389
H      -1.894561    2.182501    0.321246
H      -0.222748    3.919393   -1.143810
H       0.759370    5.108352    0.886297
H      -0.322067    4.100095    1.868833
H       1.667406    2.533737    2.185409
H       3.013929    4.244025    0.020467
H       3.755095    2.837976    0.847319
