17

C       0.154956    1.319956    0.124003
O       0.122006   -0.098366    0.032206
C       0.567126   -0.597837   -1.176211
O       1.983578   -0.346651   -1.339274
C       2.670720   -1.480259   -1.691619
O       3.813749   -1.449683   -2.039858
C       1.757233   -2.658867   -1.571826
C       1.161493   -2.856858   -0.189134
C       0.397478   -2.104964   -1.232656
H       1.182013    1.697896    0.081026
H      -0.430353    1.782410   -0.683878
H      -0.291702    1.582400    1.084513
H       0.068042   -0.088280   -2.014582
H       1.933942   -3.506311   -2.219149
H       0.829245   -3.861420    0.044379
H       1.577297   -2.304762    0.645372
H      -0.517735   -2.504335   -1.648937
