16

C      -0.156784    1.403451    0.032786
C      -0.046498   -0.044849    0.032058
C       0.050279   -1.246677    0.031815
C       0.167475   -2.650037    0.031866
N       1.244333   -3.379119    0.109290
C       0.783506   -4.681197    0.065942
C      -0.571436   -4.689795   -0.037338
C      -1.609190   -5.746152   -0.123073
O      -0.982423   -3.386988   -0.060403
H       0.437280    1.845091   -0.774891
H      -1.196926    1.717052   -0.105508
H       0.198469    1.826880    0.978810
H       1.456619   -5.523034    0.111898
H      -2.318654   -5.679788    0.709279
H      -2.184450   -5.668651   -1.052386
H      -1.136350   -6.730281   -0.093273
