18

O      -0.327885    0.072798   -0.078468
C      -0.061663    1.231412   -0.274763
C       1.246989    1.903746    0.045663
C       1.375611    2.855480    1.280199
C       0.517538    2.364058    2.455364
C       1.005555    0.907101    2.688135
C       2.340030    0.848158    1.956426
C       2.755865    2.175824    1.472513
N       2.419998    1.083008    0.481223
H      -0.805452    1.919654   -0.744272
H       1.549758    2.442394   -0.862538
H       1.327720    3.925297    1.080187
H       0.712568    2.985171    3.336428
H      -0.555058    2.424718    2.244071
H       1.153252    0.694718    3.751322
H       0.308844    0.163082    2.297040
H       3.084389    0.122390    2.265281
H       3.734663    2.636388    1.529260
