21

C      -0.018200    1.600256    0.083196
C       0.060552    0.092203    0.166425
N       1.218830   -0.726410   -0.276067
C       2.466697    0.017652    0.119249
C       2.062738   -0.023120    1.593825
C       2.935446   -0.308166    2.749462
N       2.206687    0.975993    2.653272
C       0.770306   -0.704161    1.195479
C       0.180839   -1.891786    1.896444
H       0.805032    2.105693    0.589130
H      -0.039243    1.927786   -0.962455
H      -0.945049    1.940794    0.555869
H      -0.851591   -0.389861   -0.184188
H       3.345033   -0.587672   -0.118470
H       2.576254    1.001841   -0.349204
H       2.596708   -0.961138    3.549605
H       4.010588   -0.317267    2.584726
H       2.841633    1.712558    2.352387
H      -0.289405   -1.588680    2.839382
H      -0.583523   -2.367529    1.275683
H       0.947642   -2.639464    2.125241
