18

C       0.351498    0.930634   -0.291070
O      -0.337497   -0.099392    0.407250
C       0.423674   -0.694558    1.385766
C       0.090370   -2.107686    1.728881
C       1.390387   -1.814155    0.977876
O       1.454477   -2.090439   -0.377658
C       1.659570   -3.464836   -0.685420
C       2.639302   -1.930767    1.698418
N       3.641721   -2.021552    2.269744
H       1.214847    0.529241   -0.833593
H      -0.360163    1.357278   -1.000326
H       0.689912    1.719149    0.396098
H       0.775618   -0.033965    2.179656
H       0.139729   -2.432968    2.760958
H      -0.681481   -2.564608    1.119681
H       0.850024   -4.087691   -0.282963
H       1.667822   -3.539235   -1.774066
H       2.617917   -3.823928   -0.289297
