17

C      -0.046426    1.541141    0.052708
C      -0.080314    0.031913    0.039691
C       0.287059   -0.734781   -1.293654
C      -0.843003   -1.715791   -1.003082
C      -0.834860   -2.086841    0.465130
O       0.356862   -1.940751    1.223300
C       0.776889   -0.640344    1.110499
O       1.708037   -0.202921    1.719948
C      -1.409999   -0.775319    0.070283
H       0.987785    1.893912    0.003109
H      -0.600443    1.955599   -0.794724
H      -0.484669    1.935876    0.974933
H       0.050528   -0.100601   -2.151035
H       1.305637   -1.122926   -1.397532
H      -1.368855   -2.324741   -1.728890
H      -1.443167   -2.910865    0.811393
H      -2.408797   -0.410159    0.270185
