14

O      -0.229596    0.346897   -0.834233
C       0.043885    1.097847    0.068148
C       1.280765    1.900108    0.153159
O       2.119807    2.043856   -0.998563
C       2.689771    1.434152    0.143070
C       3.091389    2.508753    1.194342
C       2.740936    3.894713    0.717791
C       1.647584    2.991427    1.212994
H      -0.627062    1.229680    0.947043
H       3.077029    0.427246    0.039992
H       3.744987    2.307633    2.031596
H       3.017498    4.686289    1.406488
H       2.810648    4.148291   -0.332292
H       1.024949    3.206970    2.071031
