18

O      -0.210804    0.314560    0.025064
C       0.264799    1.045509   -0.799370
C       1.487107    1.931461   -0.542342
C       1.383809    3.225670   -1.200885
C       1.233118    4.290263   -1.746564
C       1.091757    5.585242   -2.422563
N       1.978931    5.854900   -3.560351
C       3.345232    5.347130   -3.518412
C       2.339772    4.752244   -4.443597
H      -0.145575    1.122377   -1.829674
H       1.623216    2.022186    0.540301
H       2.359699    1.381115   -0.926859
H       0.061330    5.691045   -2.783622
H       1.247826    6.389009   -1.692557
H       4.105067    6.030020   -3.887310
H       3.641214    4.738923   -2.666548
H       1.980497    3.756235   -4.194405
H       2.348731    4.990431   -5.503298
