14

C       0.073359    1.501388    0.019517
C      -0.050267    0.013156    0.003161
C      -1.182435   -0.699994   -0.150318
C      -1.190857   -2.165777   -0.151098
O      -2.202180   -2.839232   -0.288211
C       0.150062   -2.736436    0.031069
C       1.219565   -1.941700    0.176044
O       1.162454   -0.588421    0.167927
H       0.740290    1.840808   -0.780225
H      -0.903825    1.967097   -0.113309
H       0.502925    1.841276    0.967959
H      -2.126961   -0.185386   -0.278624
H       0.264995   -3.813096    0.046962
H       2.238302   -2.282626    0.314426
