16

C      -0.196981    1.456705    0.071077
N       0.109921    0.038423    0.012918
C       1.189148   -0.449088   -0.893329
C       1.855260   -1.175158    0.277862
C       2.204177   -0.190712    1.355016
C       0.751387   -0.588337    1.166121
C      -0.022887   -1.188657    2.209694
N      -0.646108   -1.663470    3.061390
H       0.673116    2.101563    0.282706
H      -0.627127    1.768940   -0.885473
H      -0.947577    1.627855    0.848723
H       0.794458   -1.102633   -1.676607
H       1.799773    0.338476   -1.353478
H       2.216090   -2.194159    0.273104
H       2.682184   -0.608403    2.234526
H       2.516591    0.818322    1.101154
