21

C      -0.251591    1.500803    0.063685
C      -0.006851   -0.009149   -0.009333
C       0.913465   -0.424435   -1.210039
C       1.526668   -1.740204   -0.718044
O       2.982120   -1.955974   -0.639046
C       2.889249   -2.193332    0.800771
C       1.502873   -1.599138    0.764796
C       0.748806   -0.595259    1.205411
C       0.665645   -0.025385    2.585413
H       0.688123    2.049036    0.195331
H      -0.716978    1.857838   -0.860803
H      -0.917354    1.765822    0.891467
H      -0.986143   -0.499710   -0.118521
H       0.374315   -0.497004   -2.159519
H       1.711491    0.318482   -1.320349
H       1.057898   -2.630176   -1.160365
H       2.956689   -3.266568    1.024699
H       3.653360   -1.652932    1.370637
H       1.362838   -0.525460    3.263142
H       0.885932    1.048263    2.596323
H      -0.343279   -0.139833    3.003715
