18

C      -0.091598    1.508000    0.050649
C       0.114730    0.003477   -0.037387
O       1.229009   -0.474468   -0.107221
C      -1.139474   -0.810220   -0.030502
C      -1.385595   -2.072632   -0.847080
C      -0.135482   -2.955889   -0.967517
C      -0.073234   -3.038519    0.592047
C      -1.325267   -2.152773    0.665212
H       0.873344    2.015745    0.039324
H      -0.704205    1.857674   -0.788556
H      -0.634616    1.764511    0.967788
H      -2.039870   -0.204474    0.037514
H      -2.248727   -2.106948   -1.502123
H      -0.370534   -3.921125   -1.422062
H       0.727621   -2.517723   -1.468413
H      -0.275485   -4.047303    0.959455
H       0.828783   -2.652008    1.066186
H      -2.133720   -2.259761    1.379503
