17

C      -0.083312    1.551693   -0.080788
C       0.075028    0.049902   -0.023640
C       1.378185   -0.668722   -0.221027
N       2.613048    0.012235   -0.011859
C       2.652530    0.398021    1.214566
N       1.552500    0.111275    1.997650
C       0.642226   -0.652414    1.197308
C      -0.006442   -1.796782    1.838812
O       0.188398   -2.113792    2.992433
H       0.809662    2.070187    0.271676
H      -0.268755    1.868536   -1.111766
H      -0.928953    1.875792    0.533755
H      -0.760236   -0.503063   -0.450357
H       1.407313   -1.540882   -0.866060
H       3.481554    0.954414    1.638967
H       1.652477   -0.181856    2.961243
H      -0.704869   -2.362412    1.185178
