18

C       0.362028    1.498020    0.098874
C       0.169091   -0.007749    0.002949
O       0.790639   -0.584886    1.133735
C      -1.338819   -0.406543   -0.036870
N      -2.017331    0.104075   -1.222787
C      -2.962242    1.084864   -1.160507
O      -3.277360    1.685496   -0.156936
C      -1.472338   -1.862472    0.045522
C      -1.514184   -3.064060    0.085990
H       1.430288    1.725763    0.135045
H      -0.075628    2.006661   -0.762692
H      -0.105476    1.884516    1.008845
H       0.629596   -0.380617   -0.928339
H       0.634202   -1.536594    1.103306
H      -1.833441    0.063743    0.819601
H      -1.882699   -0.383129   -2.094986
H      -3.410926    1.282875   -2.153385
H      -1.588239   -4.122794    0.137667
