16

N       0.055553    1.233657   -0.393512
C      -0.024316   -0.018949    0.153089
O       0.910346   -0.550371    0.729163
C      -1.334751   -0.681435    0.023412
C      -2.737836   -0.377223   -0.586973
C      -3.386449   -1.251037    0.476292
C      -2.945529   -1.862504   -0.844538
C      -1.552872   -2.181445   -0.222159
C      -1.989242   -1.576249    1.084503
H       0.963132    1.669336   -0.424553
H      -0.663580    1.585424   -1.001278
H      -3.142235    0.477624   -1.114022
H      -4.373363   -1.186125    0.912856
H      -3.531577   -2.354706   -1.608208
H      -0.789604   -2.918344   -0.428656
H      -1.629902   -1.751666    2.088573
