18

C       0.030884    1.413978    0.064533
C      -0.000277   -0.068373   -0.061348
N       0.049837   -0.748597   -1.144039
C       0.057778   -2.134493   -0.747517
C       1.243871   -2.550312    0.107845
O       2.374074   -1.747248    0.206058
C      -0.040882   -2.135706    0.783975
C      -0.855588   -3.009030    1.688162
O      -0.101762   -0.753100    1.110363
H       0.942809    1.731256    0.580372
H      -0.000127    1.865550   -0.926605
H      -0.818976    1.762629    0.658984
H      -0.418065   -2.844617   -1.414556
H       1.444057   -3.620963    0.129945
H       2.507654   -1.321969   -0.649221
H      -0.773897   -4.053130    1.373516
H      -0.501371   -2.939031    2.721944
H      -1.912382   -2.724726    1.664950
