15

O       0.131801   -0.042537   -0.141118
C       0.035778    1.110611    0.156146
O      -1.096234    1.579785    0.744242
C      -1.303978    2.993172    0.893524
C      -0.095942    3.718356    1.437473
C       0.835014    3.020044    2.364460
C       1.253925    3.250483    0.910797
C       1.199484    2.120622   -0.042422
O       1.985852    1.948179   -0.939263
H      -1.602526    3.416333   -0.073981
H      -2.155072    3.076953    1.574618
H      -0.231414    4.789488    1.549277
H       1.366476    3.609686    3.101490
H       0.602698    2.007984    2.675993
H       2.037598    3.971864    0.712982
