23

C       0.077465    1.491902   -0.262576
C      -0.008541    0.015208    0.149080
C      -1.420563   -0.510387    0.159405
C      -2.122995   -1.007004   -1.085778
C      -1.931969   -1.966877    0.065964
C      -1.152723   -3.248196   -0.053247
C      -2.955955   -1.669253    1.140135
C      -2.292029   -1.168003    2.396862
C      -2.451077   -0.224290    1.232360
H       1.112377    1.848119   -0.247996
H      -0.318295    1.641894   -1.272509
H      -0.502583    2.124167    0.418015
H       0.601177   -0.588861   -0.534864
H       0.434273   -0.109493    1.146168
H      -3.115321   -0.644520   -1.343338
H      -1.479443   -1.179312   -1.945327
H      -0.294321   -3.134365   -0.723629
H      -0.775670   -3.578032    0.921345
H      -1.776264   -4.055470   -0.456669
H      -3.988766   -2.001933    1.134884
H      -2.955661   -0.990047    3.238354
H      -1.306171   -1.529957    2.678208
H      -3.056348    0.673086    1.304956
