19

C       0.228530    1.590710   -0.011162
C       0.571801    0.104173   -0.004292
N       0.054584   -0.541568    1.200864
C       0.306697   -1.948554    1.289545
C       1.704891   -2.503430    1.693134
N       1.951465   -1.947721    3.027024
C       1.143028   -3.214919    2.890795
C      -0.245556   -2.729980    2.538496
O      -1.344396   -2.966542    2.940651
H       0.699413    2.106441    0.833579
H       0.583256    2.067373   -0.929825
H      -0.852598    1.735558    0.065921
H       0.107135   -0.388088   -0.868693
H       1.663635   -0.022394   -0.124200
H       0.430090   -0.089071    2.029576
H      -0.070289   -2.453351    0.390773
H       2.510334   -2.840329    1.053141
H       2.879394   -2.239616    3.333160
H       1.457174   -4.124162    3.386336
