18

C      -0.046425    1.616837   -0.008368
C       1.458050    1.246410   -0.002395
C       1.127077    0.166782    1.076223
C       2.095726   -1.009476    1.176497
C       2.059601   -1.786258   -0.141755
O       1.987764   -0.912080   -1.260261
C       1.106790    0.161243   -1.064619
C      -0.025930    0.067306    0.012352
H      -0.425010    2.099986    0.895578
H      -0.437207    2.094083   -0.911868
H       2.314443    1.923019   -0.008807
H       0.828297    0.565683    2.050733
H       3.105954   -0.636488    1.386222
H       1.822994   -1.679663    1.999650
H       2.947685   -2.407404   -0.286493
H       1.181042   -2.450345   -0.144615
H       0.818942    0.526497   -2.054165
H      -0.888887   -0.600653    0.022993
