20

C       0.032083    1.530324    0.124549
C      -0.076438    0.009719   -0.026699
C      -1.493377   -0.505988   -0.067399
C      -2.611919    0.054622   -0.974927
C      -3.524074   -0.498212    0.130158
C      -3.280045   -2.008081    0.261500
C      -2.385699   -1.786480    1.443667
C      -1.747863   -2.016897    0.106982
N      -2.405879   -0.289110    1.174813
H       1.074251    1.834652    0.259088
H      -0.353668    2.052196   -0.757067
H      -0.540125    1.866869    0.993840
H       0.442062   -0.321475   -0.937374
H       0.436065   -0.480815    0.811229
H      -2.615355    1.147577   -0.984527
H      -2.712650   -0.339499   -1.989339
H      -4.511336   -0.088983    0.344947
H      -3.905525   -2.853085    0.005236
H      -2.291934   -2.261272    2.411969
H      -1.194150   -2.868655   -0.267401
