16

C      -0.047195    1.517108    0.056209
C      -0.019580    0.024574    0.015504
C       0.000131   -0.791123   -1.063431
N       0.157158   -2.138681   -0.754741
C       0.045696   -2.274031    0.704930
C       0.034156   -0.834540    1.187409
N       0.081860   -0.416695    2.398724
O       0.101730   -1.521166    3.284775
H       0.852393    1.918936    0.537371
H      -0.114766    1.941001   -0.949673
H      -0.899594    1.879309    0.642016
H      -0.041926   -0.495183   -2.104694
H      -0.363551   -2.800042   -1.312647
H      -0.873803   -2.792280    1.005895
H       0.886983   -2.830911    1.130622
H       0.157976   -1.089165    4.143172
