13

N      -0.109818    1.287435    0.531192
C      -0.031392    0.101872    0.069811
C       1.250626   -0.500141   -0.344628
N       1.607559   -1.456495   -1.113008
O       0.765499   -2.257275   -1.868714
N      -0.619137   -2.313448   -1.901419
C      -1.418329   -1.683245   -1.129048
C      -1.278313   -0.718151   -0.021465
N      -2.195835   -0.537039    0.844523
H       0.812370    1.732123    0.554797
H       2.123125   -0.009032    0.089957
H      -2.454213   -1.950087   -1.345948
H      -2.997617   -1.146950    0.660435
