25

C       0.033122    1.575866   -0.079101
C      -0.003729    0.048109    0.001303
C      -1.427441   -0.522910    0.026275
O      -2.174129   -0.109327   -1.118673
C      -1.440106   -2.049383    0.182890
C      -2.850721   -2.635630    0.286876
C      -2.851149   -4.154925    0.376876
O      -4.185249   -4.603160    0.478025
C      -4.288329   -6.001526    0.573016
H       1.060197    1.945390   -0.154473
H      -0.526935    1.928962   -0.948852
H      -0.420084    2.026875    0.810639
H       0.530689   -0.385609   -0.857304
H       0.530966   -0.296242    0.895479
H      -1.970931   -0.078386    0.871266
H      -1.731938   -0.468104   -1.896921
H      -0.911359   -2.493511   -0.674928
H      -0.853540   -2.317574    1.071602
H      -3.358364   -2.233323    1.172029
H      -3.442293   -2.325217   -0.579661
H      -2.366092   -4.594316   -0.513670
H      -2.267654   -4.491341    1.253050
H      -3.770414   -6.392317    1.464151
H      -5.350263   -6.249305    0.646916
H      -3.867530   -6.505964   -0.312158
