12

N       0.005110    1.353273    0.104548
C      -0.019037   -0.000881    0.036920
C      -1.221723   -0.747394    0.024993
N      -1.193690   -2.058135   -0.001450
C       0.035276   -2.609954   -0.013737
N       1.193608   -1.948550   -0.010235
N       1.168978   -0.629229    0.010988
C       0.117426   -4.045744   -0.037755
N       0.174199   -5.200228   -0.056792
H       0.897317    1.800983   -0.035962
H      -0.821274    1.886105   -0.104551
H      -2.193781   -0.257414    0.036537
