17

C      -0.060085    1.513279    0.068944
C       0.043974   -0.022878    0.020790
C       0.763779   -0.503026   -1.253956
C       0.725782   -0.548636    1.244117
N       0.252239   -1.354421    2.151364
C       1.321440   -1.473897    3.004985
O       1.274055   -2.227563    4.102856
N       2.395068   -0.801989    2.678358
O       1.986158   -0.174103    1.481003
H       0.933440    1.970379    0.077379
H      -0.597661    1.876917   -0.811471
H      -0.597731    1.848309    0.960453
H      -0.962926   -0.450324    0.044347
H       1.786731   -0.117941   -1.291263
H       0.807976   -1.594859   -1.298712
H       0.229776   -0.145584   -2.139070
H       0.393631   -2.621415    4.135659
