17

N      -0.051523    1.132112   -0.895301
C       0.010742    0.143883   -0.107351
C      -1.256145   -0.558198    0.350058
C      -1.074795   -2.030704    0.688544
C       0.281131   -2.609163    0.734927
C       1.206693   -1.484222    1.185865
C       0.377003   -1.446780    2.494747
N      -0.560642   -2.508376    1.996147
O       1.207955   -0.320819    0.360136
H       0.887497    1.486091   -1.089754
H      -1.675593   -0.016042    1.206470
H      -1.980888   -0.445411   -0.457376
H      -1.863013   -2.686526    0.333112
H       0.569480   -3.553400    0.287953
H       2.255835   -1.743101    1.318571
H       0.931288   -1.830441    3.353347
H      -0.090135   -0.495951    2.767034
