18

O       0.012396    1.415431   -0.262746
C       0.060381    0.064503    0.145650
C      -1.348841   -0.528573    0.173669
C      -1.944042   -0.612663   -1.249608
O      -2.090014    0.175011   -2.152976
N      -2.148142   -1.964085   -1.129332
C      -1.536529   -2.058221    0.191106
C      -0.598175   -3.129169    0.650198
C      -1.968914   -2.964040    1.295293
H      -0.491248    1.443302   -1.088350
H       0.700765   -0.543329   -0.514448
H       0.512640    0.049717    1.143421
H      -1.982097    0.015226    0.878835
H      -2.363644   -2.666097   -1.823243
H      -0.446088   -3.988275    0.004705
H       0.279960   -2.841005    1.218675
H      -2.020852   -2.561504    2.301538
H      -2.721582   -3.713595    1.073950
