21

C      -0.118119    1.510593    0.051973
C       0.031857   -0.014272   -0.028756
C       0.698281   -0.415608   -1.354293
C       0.879689   -1.921490   -1.575743
C       1.719559   -2.628620   -0.513153
O       0.990842   -2.948521    0.678951
C       0.548437   -1.994857    1.535616
O      -0.053741   -2.341727    2.516342
C       0.812090   -0.534429    1.204492
H       0.862332    2.001654    0.061117
H      -0.675262    1.896387   -0.807864
H      -0.649772    1.809594    0.960413
H      -0.974168   -0.454948    0.002697
H       0.111912   -0.003468   -2.184108
H       1.682829    0.072138   -1.407196
H      -0.092337   -2.426962   -1.630976
H       1.367876   -2.078590   -2.545266
H       2.048069   -3.603123   -0.881582
H       2.618741   -2.048948   -0.267270
H       1.885848   -0.357214    1.062088
H       0.506118    0.015053    2.096359
