21

C      -0.617464    1.452820    0.039926
C       0.005240    0.057168   -0.018181
C       0.858772   -0.214645   -1.292346
C       2.087278   -1.016700   -0.837216
O       3.224579   -0.156410   -0.537949
C       3.087396   -0.377048    0.879218
C       2.114832    0.628895    1.535101
C       0.908914   -0.310171    1.178254
C       1.922095   -1.373870    0.659948
H       0.151055    2.232832    0.023510
H      -1.277558    1.624179   -0.816983
H      -1.212876    1.587256    0.949602
H      -0.814966   -0.673849   -0.011555
H       0.279308   -0.759239   -2.044674
H       1.204939    0.712829   -1.759978
H       2.384580   -1.809016   -1.531622
H       4.045923   -0.587095    1.359210
H       2.259257    0.708369    2.616636
H       2.132921    1.631919    1.102283
H       0.318869   -0.590355    2.053526
H       1.887728   -2.410488    0.988423
