18

C      -0.675729   -0.960530   -1.219119
C      -0.359696    0.025741   -0.610429
C       0.007636    1.219954    0.156550
C      -0.533522    1.138566    1.573538
C       0.125106    1.619420    2.623247
C       1.467303    2.283862    2.509898
C       2.184623    1.961479    1.209801
C       2.343358    0.549422    0.767723
N       1.460672    1.457976    0.034615
H      -0.950431   -1.827070   -1.768066
H      -0.470242    2.083404   -0.332648
H      -1.510725    0.678945    1.685082
H      -0.317223    1.556388    3.613899
H       1.337658    3.373129    2.588580
H       2.104014    2.005395    3.360133
H       2.970220    2.667556    0.946852
H       3.230939    0.231340    0.228078
H       1.884867   -0.217053    1.388131
