20

O       0.011116    1.402392    0.095358
C       0.034116   -0.008154    0.076403
C      -1.361996   -0.601571   -0.071077
C      -1.390006   -2.123084   -0.124158
C      -2.837730   -2.618032   -0.071936
C      -3.511739   -2.081264    1.196528
C      -3.334908   -0.592082    1.376115
N      -4.239429    0.126431    1.891845
O      -2.105339   -0.075319    1.056149
H      -0.628261    1.650827    0.773009
H       0.647200   -0.307430   -0.780099
H       0.498743   -0.421190    0.986791
H      -1.822490   -0.190076   -0.981323
H      -0.890909   -2.452781   -1.041763
H      -0.822604   -2.532098    0.721967
H      -3.378410   -2.268017   -0.960391
H      -2.879009   -3.711249   -0.085335
H      -4.580194   -2.298558    1.227921
H      -3.056492   -2.565930    2.071367
H      -3.918688    1.094970    1.961959
