18

C       0.023070    1.565921    0.245649
C       0.002877    0.067261   -0.078126
O       0.796739   -0.653544    0.849335
C      -1.411990   -0.519345   -0.122180
C      -2.471405    0.199456   -0.948273
O      -3.747180   -0.383940   -0.796296
C      -1.601685   -1.940630    0.179587
O      -1.898428   -0.929334    1.174653
H       1.059365    1.884096    0.381543
H      -0.418584    2.167636   -0.554442
H      -0.524700    1.770727    1.172229
H       0.468817   -0.095594   -1.058421
H       0.265902   -0.715738    1.655435
H      -2.490161    1.263805   -0.671209
H      -2.211635    0.141446   -2.011581
H      -3.883021   -0.469944    0.156377
H      -2.476567   -2.448110   -0.215596
H      -0.733930   -2.551935    0.406386
