20

C       0.001775    1.467707    0.079283
C       0.014374   -0.049342   -0.005330
C       0.228970   -0.666884   -1.418255
N      -1.082226   -1.408798   -1.374939
C      -1.150348   -2.189067   -0.115382
C       0.003419   -2.850320    0.613680
O       1.164824   -2.053764    0.769047
C       0.912929   -0.689011    1.057582
C      -1.365674   -0.734951   -0.045109
H       0.996302    1.881771   -0.121113
H      -0.695081    1.895938   -0.648501
H      -0.306939    1.807996    1.074962
H       0.170540    0.080107   -2.213903
H       1.108509   -1.296416   -1.567710
H      -2.045379   -2.808161   -0.111005
H      -0.382153   -3.162619    1.600877
H       0.331453   -3.754333    0.089004
H       1.898949   -0.212510    1.078791
H       0.454331   -0.570282    2.054854
H      -2.317686   -0.260859    0.176045
