17

O       0.052620    1.343480    0.352869
C       0.073015    0.002165   -0.083746
C      -1.314629   -0.584947   -0.101964
N      -1.992265   -1.100302    1.117118
C      -1.724090   -2.006397   -0.012989
C      -2.953813   -2.203474   -0.893532
N      -3.226927   -0.853417   -1.373916
C      -2.326378    0.096002   -0.998339
O      -2.309458    1.267923   -1.335384
H      -0.617570    1.786045   -0.191395
H       0.515767   -0.092362   -1.089471
H       0.713070   -0.560340    0.607264
H      -1.280734   -1.238051    1.834202
H      -1.010826   -2.815512    0.095702
H      -2.738675   -2.885647   -1.725633
H      -3.796628   -2.604732   -0.319616
H      -4.052366   -0.606943   -1.896136
