23

C      -0.368394    1.499263   -0.070134
C      -0.006326    0.011766   -0.018936
C       0.796950   -0.391539    1.223298
C       0.052336   -0.183347    2.564321
C       0.680154   -1.209410    3.513178
C       0.811403   -2.465675    2.618269
C       1.221030   -1.891800    1.226107
C       1.711231   -3.486155    3.133703
C       2.468579   -4.317437    3.560436
H       0.531031    2.125192   -0.047329
H      -0.918198    1.741468   -0.984940
H      -0.994778    1.790221    0.779340
H      -0.923686   -0.592446   -0.059361
H       0.569387   -0.251143   -0.915743
H       1.707718    0.221021    1.247061
H       0.124972    0.841769    2.937408
H      -1.016148   -0.405048    2.434808
H       1.676962   -0.882112    3.830218
H       0.091930   -1.398973    4.414914
H      -0.190028   -2.906811    2.525034
H       0.738488   -2.452990    0.420325
H       2.299380   -1.995337    1.082766
H       3.132311   -5.055504    3.936802
