17

C      -0.151357    1.583149   -0.002157
C       0.022965    0.074616    0.012507
C       1.192275   -0.647434   -0.737693
C       2.165966   -0.159026    0.375502
C       0.881121   -0.647954    1.117326
C       0.907083   -1.883954    0.164001
C       0.637368   -0.646239    2.537963
N       0.432156   -0.634730    3.676386
H       0.782534    2.134541    0.128005
H      -0.592060    1.897626   -0.954249
H      -0.835326    1.893845    0.794508
H      -0.946358   -0.413277   -0.137363
H       1.376237   -0.652393   -1.811223
H       3.060610   -0.763808    0.538480
H       2.396057    0.904319    0.428330
H      -0.045183   -2.398612    0.017460
H       1.731601   -2.583551    0.315124
