14

O       0.101755    1.361110    0.100568
C       0.070096    0.012481    0.029047
C       0.072021   -0.680298   -1.182567
C       0.037853   -2.067443   -1.152656
N       0.002701   -2.799959   -0.031184
C       0.001427   -2.122970    1.114034
C       0.033660   -0.726745    1.222645
C       0.028593   -0.085671    2.555876
O      -0.002539   -0.703873    3.596939
H       0.124530    1.732880   -0.788348
H       0.099603   -0.148032   -2.128855
H       0.038823   -2.623236   -2.087389
H      -0.026838   -2.699500    2.034489
H       0.055590    1.021067    2.548769
