19

C      -0.149535    1.539732    0.065234
C       0.019743    0.027676    0.020394
C       0.765910   -0.609684   -1.196266
C       2.107189   -0.255543   -0.490285
C       1.267448   -0.558618    0.798876
O       1.629344   -0.185550    2.070980
C       1.007010   -2.035400    0.596758
O       1.083358   -2.878584    1.455298
C       0.634582   -2.120074   -0.888848
H       0.761216    2.085035   -0.194465
H      -0.935733    1.854423   -0.629405
H      -0.444640    1.853789    1.071085
H      -0.937187   -0.447739    0.268678
H       0.561545   -0.284893   -2.214653
H       2.979496   -0.883250   -0.694068
H       2.381389    0.795626   -0.564243
H       1.619050   -0.998406    2.601552
H      -0.374305   -2.521272   -1.027849
H       1.335726   -2.751588   -1.443621
