19

C       0.005425    1.479734   -0.276871
C       0.027114   -0.004187    0.012450
C       1.324210   -0.799518   -0.007414
O       2.550771   -0.126129   -0.122788
C       0.624146   -0.542701    1.305024
O       1.262262    0.357074    2.165347
C      -0.063618   -1.655878    2.068721
C       0.923168   -2.551052    2.793323
O       0.861121   -3.754124    2.810579
H       0.798844    2.003118    0.260188
H       0.116063    1.683655   -1.348332
H      -0.945552    1.916405    0.043119
H      -0.831439   -0.554285   -0.365611
H       1.321001   -1.802276   -0.431811
H       2.568105    0.355933   -0.956065
H       2.118755    0.556166    1.759368
H      -0.717606   -1.195868    2.823701
H      -0.685597   -2.274163    1.416407
H       1.731516   -2.003971    3.324219
