17

O       0.726293    0.592942    1.019674
C       0.139187   -0.355463    0.184887
C      -1.425543   -0.484314    0.028766
C      -2.181030    0.817889    0.078824
C      -2.584589    1.229325   -1.125521
C      -2.197338    0.279619   -2.237680
C      -1.259448   -0.706347   -1.515516
C       0.179262   -0.169549   -1.344052
O       0.922055    0.419682   -2.075960
H       0.603932    1.460063    0.616567
H       0.556104   -1.333017    0.457293
H      -1.873765   -1.275781    0.634218
H      -2.368751    1.340027    1.010345
H      -3.147445    2.137440   -1.313485
H      -3.076852   -0.216423   -2.667347
H      -1.680797    0.782903   -3.063223
H      -1.305063   -1.735927   -1.874005
