18

C       0.019418    1.591442   -0.050516
C       0.017740    0.092914    0.012405
C      -0.148006   -0.733538    1.301249
C      -1.217961   -1.778816    1.537478
O      -0.824990   -2.720085    2.524040
C       1.041752   -0.947483    0.426740
O       0.688838   -1.805587   -0.692675
C      -0.199518   -0.828210   -1.150451
N      -0.853769   -0.763032   -2.216266
H       0.588952    1.947804   -0.914152
H      -1.001366    1.975852   -0.143281
H       0.458808    2.021371    0.854333
H       0.082767   -0.135622    2.181856
H      -2.120387   -1.296288    1.925575
H      -1.487995   -2.270017    0.594374
H      -0.087525   -3.222904    2.162528
H       2.090999   -0.874845    0.679872
H      -0.698252   -1.585302   -2.801821
