16

N      -0.041794    1.351110    0.092937
C       0.085560    0.005785    0.077029
O       1.133505   -0.602096    0.134005
C      -1.278952   -0.744436   -0.030311
N      -2.275039    0.093240   -0.713813
C      -1.055401   -2.125377   -0.709044
O      -2.276595   -2.824399   -0.833966
C      -1.765418   -0.996180    1.338398
N      -2.157231   -1.254655    2.394619
H       0.781911    1.917480    0.210968
H      -0.958725    1.767378    0.054955
H      -1.969089    0.228589   -1.675463
H      -3.143286   -0.434622   -0.768689
H      -0.684997   -1.945456   -1.723186
H      -0.291180   -2.687033   -0.164187
H      -2.495386   -3.202515    0.025253
