24

C      -0.611602   -0.815821    0.010008
C       0.449027   -1.795412    0.479013
C       1.806902   -1.901002   -0.157140
C       2.267415   -0.951844   -1.244611
N       1.657910   -1.503280    1.239910
C       2.120904   -0.255721    1.793955
C       3.616030   -0.327537    2.047297
C       1.537017    1.125020    1.530556
C       1.275460    0.412522    2.842585
H      -0.217474    0.015947   -0.574888
H      -1.322335   -1.354404   -0.626538
H      -1.180473   -0.404069    0.850461
H      -0.002571   -2.732261    0.810553
H       2.223445   -2.903349   -0.271914
H       1.902956    0.066531   -1.102302
H       3.361344   -0.907376   -1.275426
H       1.928274   -1.304366   -2.225384
H       4.173854   -0.412290    1.108302
H       3.968481    0.568737    2.565925
H       3.853429   -1.202449    2.660275
H       2.225517    1.964509    1.531614
H       0.702437    1.245995    0.855409
H       0.277891    0.016866    3.001504
H       1.757488    0.774941    3.744693
