15

C      -0.025929    1.562988    0.016315
C      -0.028407    0.015117   -0.039933
C      -1.387889   -0.517870    0.051431
C      -2.514262   -0.930844    0.115981
C       0.660081   -0.478325   -1.287582
N       1.929763   -0.783416   -1.302471
O       2.215777   -1.144368   -2.589148
N       1.107841   -1.067420   -3.384669
C       0.146654   -0.661295   -2.604344
H       1.001436    1.933866   -0.015470
H      -0.577980    1.982084   -0.829053
H      -0.500359    1.903140    0.939701
H       0.555435   -0.355686    0.810432
H      -3.504722   -1.308406    0.185728
H      -0.857176   -0.523246   -2.973361
