19

O       0.088071    0.035652    0.268918
C       0.016287    1.202550    0.017521
C      -1.151203    2.189054   -0.142253
C      -0.144781    3.198309   -0.782856
C      -0.158515    4.623639   -0.245855
C       0.943716    5.505673   -0.868466
C       0.942375    6.867715   -0.349723
C       0.917462    7.983552    0.096344
C       1.048781    2.274880   -0.367242
H      -1.995162    1.844322   -0.745018
H      -1.533045    2.521850    0.830184
H      -0.256040    3.209042   -1.872117
H      -1.134066    5.084479   -0.439612
H      -0.033150    4.610297    0.844090
H       1.924764    5.046849   -0.688019
H       0.817451    5.528843   -1.959086
H       0.906041    8.972667    0.482017
H       1.590753    2.640440    0.513527
H       1.779466    1.987908   -1.127550
