18

O      -0.296473   -0.059591   -0.410221
C      -0.121995    1.085704   -0.136104
N      -1.047151    2.169317    0.059926
C      -0.012872    2.904588    0.819351
C       0.953274    4.140188    0.743737
C       2.030638    2.976804    0.998230
C       1.705365    2.548803    2.430315
C       0.156091    2.467775    2.298467
C       1.050529    2.137414    0.073571
H      -1.981551    1.984914    0.410564
H       1.038716    4.586877   -0.246565
H       0.870730    4.911046    1.516386
H       3.074468    3.117960    0.719928
H       2.153790    1.587996    2.693592
H       2.039496    3.290075    3.162112
H      -0.374505    3.134366    2.984747
H      -0.219152    1.452751    2.459371
H       1.150116    2.558963   -0.932328
