16

O      -0.367092    0.359417   -0.596217
C       0.088012    1.097709    0.241052
C       1.330306    1.906406    0.026104
C       2.712659    1.281043   -0.326224
C       3.017531    2.774390   -0.660966
C       1.551538    2.849467   -1.191004
C       2.834954    3.404232    0.727205
O       1.619902    2.741045    1.155965
H      -0.384343    1.227286    1.238567
H       3.256135    0.806317    0.493926
H       2.671407    0.638416   -1.205257
H       3.878315    3.085495   -1.251059
H       1.407950    2.344074   -2.145553
H       1.033220    3.810685   -1.163351
H       3.650141    3.176424    1.423147
H       2.678519    4.488440    0.699751
