18

O       0.068420    1.428811    0.355886
C       0.076887    0.047436    0.018101
C      -1.306754   -0.516840   -0.162173
C      -2.074600   -1.049086    1.047911
C      -1.630943   -1.980460   -0.052822
O      -2.554380   -2.360820   -1.035873
C      -3.168772   -1.173813   -1.542411
C      -2.163302   -0.022575   -1.322730
H      -0.470495    1.524322    1.148610
H       0.639107   -0.017394   -0.920751
H       0.625213   -0.542955    0.770221
H      -1.532757   -1.109672    1.987307
H      -3.129977   -0.823315    1.157132
H      -0.894232   -2.753054    0.135635
H      -3.413133   -1.346571   -2.593889
H      -4.108753   -0.979549   -1.007496
H      -2.666513    0.928364   -1.128727
H      -1.521784    0.114598   -2.200335
