15

C      -0.087719    1.477509    0.000215
C       0.065308   -0.019227   -0.006884
O       1.130160   -0.600915    0.007897
N      -1.133960   -0.748039   -0.028802
N      -2.379920   -0.118439    0.030216
N      -3.260476   -1.049343    0.060653
C      -2.668881   -2.281487    0.023152
C      -1.301573   -2.116563   -0.036001
N      -0.263497   -2.990105   -0.150424
H       0.906926    1.921662    0.008098
H      -0.650732    1.806510   -0.876764
H      -0.659978    1.796731    0.874736
H      -3.244613   -3.191775    0.035306
H      -0.437257   -3.937966    0.140068
H       0.651933   -2.607458    0.040455
