20

C       0.045379    1.249742    0.280502
O      -0.156405    0.059405   -0.472239
C      -1.234613   -0.669289   -0.130334
N      -1.502051   -1.741133   -0.736326
C      -2.650215   -2.463815   -0.330939
C      -3.847736   -2.848809   -1.253598
C      -4.148767   -3.501465    0.124870
C      -2.659073   -3.944529    0.159935
C      -3.712546   -2.168264    0.791484
H       0.947270    1.715589   -0.117890
H      -0.796405    1.943824    0.168278
H       0.194528    1.031677    1.345000
H      -1.829834   -0.250995    0.694580
H      -4.501150   -2.029326   -1.566781
H      -3.620785   -3.524544   -2.082019
H      -5.016920   -4.101964    0.389451
H      -2.349228   -4.696697   -0.569892
H      -2.220993   -4.131215    1.144732
H      -3.367305   -2.230602    1.828008
H      -4.369377   -1.306885    0.636378
