16

C       0.078208    1.455970    0.083411
C       0.008407    0.004346    0.041503
C      -0.063996   -1.197424    0.025839
C      -0.090809   -2.646464   -0.071486
O      -1.447362   -3.103592   -0.156802
C      -1.719757   -4.311373    0.394849
N      -2.859136   -4.823067    0.236872
C       0.639435   -3.078307   -1.358661
O       1.699338   -3.639921   -1.364179
H       0.739790    1.841282   -0.699634
H      -0.912639    1.896620   -0.069083
H       0.457951    1.807084    1.048556
H       0.425205   -3.111636    0.778384
H      -0.879506   -4.733164    0.962779
H      -2.915819   -5.711165    0.730889
H       0.078023   -2.824859   -2.281850
