18

C      -0.374880    1.568048    0.018270
C       0.026537    0.112598    0.011216
C      -1.043678   -0.970777    0.250510
O      -0.233035   -1.638630    1.244784
C       0.798261   -0.627178    1.166416
C       1.877464   -0.974450    0.168045
C       1.133643   -0.345336   -0.997580
N       3.011563   -1.505099    0.355601
O       3.722311   -1.617594   -0.849258
H       0.502278    2.222433    0.061308
H      -0.931794    1.823992   -0.891165
H      -1.012898    1.801890    0.876998
H      -1.977814   -0.596145    0.689929
H      -1.283650   -1.621049   -0.599862
H       1.071646   -0.223157    2.144214
H       0.813172   -1.027618   -1.790898
H       1.689514    0.477326   -1.459384
H       4.549720   -2.019190   -0.562080
