19

N      -0.165253    1.122454    0.596876
C      -0.032503   -0.036577    0.069903
N       1.123097   -0.552025   -0.477209
C       1.466047   -1.918368   -0.875499
C       0.552832   -3.005832   -0.301195
C      -0.806271   -3.115689   -1.011492
C      -1.459668   -1.739315   -1.271024
C      -1.317638   -0.866202   -0.037138
O      -2.159966   -0.814210    0.822161
H       0.721811    1.634044    0.602021
H       1.907760    0.080760   -0.439028
H       1.484857   -2.005376   -1.973436
H       2.490943   -2.100875   -0.533568
H       1.076709   -3.964212   -0.376459
H       0.408656   -2.815833    0.769167
H      -0.687156   -3.636326   -1.968023
H      -1.481278   -3.721583   -0.399057
H      -0.978578   -1.252990   -2.126389
H      -2.523441   -1.856484   -1.488749
