22

C      -7.202145    0.157413    2.416809
C      -6.295671   -0.150356    1.319509
C      -5.549865   -0.396223    0.406786
C      -4.631242   -0.722211   -0.680579
C      -3.953651   -2.072762   -0.458676
C      -4.512083   -3.358712   -0.980156
C      -5.799389   -3.453291   -1.771687
N      -3.262457   -2.806843   -1.517659
C      -3.195797   -2.287151   -2.874457
H      -8.197347    0.429829    2.047912
H      -7.322641   -0.701122    3.086946
H      -6.832151    0.995539    3.017884
H      -5.167566   -0.695225   -1.633703
H      -3.855585    0.053055   -0.751378
H      -3.428867   -2.105374    0.495812
H      -4.337451   -4.245058   -0.369241
H      -6.027471   -2.556751   -2.350655
H      -5.760364   -4.297387   -2.469271
H      -6.638877   -3.625966   -1.090303
H      -4.097735   -1.779495   -3.245758
H      -2.363172   -1.578753   -2.938975
H      -2.978703   -3.116271   -3.555835
