17

C      -0.012263    1.532690   -0.057971
C      -0.027587    0.077243   -0.035513
C      -0.048773   -1.126847   -0.010073
C      -0.066054   -2.576317    0.016326
C       0.328252   -3.339322    1.349564
C      -1.025218   -4.052001    1.290723
N      -2.048265   -2.980820    1.369597
C      -1.425756   -3.306726    0.068583
H       0.673561    1.935215    0.696145
H       0.308310    1.916426   -1.033185
H      -1.006667    1.943863    0.149123
H       0.529696   -2.977698   -0.810133
H       1.188186   -3.995733    1.204755
H       0.478371   -2.708254    2.226969
H      -1.256217   -5.065233    1.594637
H      -2.961088   -3.435676    1.379452
H      -2.029749   -3.605326   -0.779548
