14

N       0.058927    1.516154    0.165636
C      -0.040575    0.072555   -0.007681
C      -1.444299   -0.455136   -0.126918
C      -1.507525   -1.270302   -1.193271
N      -0.266873   -1.358710   -1.858738
C       0.651910   -0.498167   -1.277225
O       1.753372   -0.235917   -1.691830
C      -2.623422   -2.010988   -1.667628
N      -3.521878   -2.616805   -2.074345
H       1.042761    1.774101    0.136370
H      -0.377428    1.983497   -0.625097
H       0.453609   -0.400464    0.855078
H      -2.250840   -0.240229    0.556196
H      -0.140085   -1.770719   -2.770389
