19

C       0.032241    1.416945    0.053497
O       0.066446   -0.012460    0.057835
C       0.568173   -0.577063   -1.068365
C      -0.015641   -0.961655   -2.249230
C      -1.441900   -0.812679   -2.665742
N       0.935009   -1.562067   -3.049523
C       2.053167   -1.539265   -2.362354
N       1.901532   -0.951524   -1.140675
C       2.903293   -0.758403   -0.113988
H       1.042452    1.841087   -0.007817
H      -0.562502    1.792132   -0.786744
H      -0.430196    1.720109    0.995064
H      -1.548711   -0.114201   -3.503796
H      -1.852909   -1.773107   -2.993513
H      -2.050058   -0.446225   -1.833859
H       3.004161   -1.939232   -2.684371
H       3.344545    0.243874   -0.159112
H       2.448042   -0.894611    0.869207
H       3.698382   -1.495605   -0.242854
