15

O      -0.320424    0.263475   -0.367016
C      -0.219914    1.396262   -0.022171
O       0.870712    2.148680   -0.340296
C       0.900923    3.502180    0.120924
C       1.433623    3.567056    1.493518
N       1.845626    3.636065    2.570260
C       1.757163    4.329129   -0.830423
C       2.949174    3.739101   -1.479888
N       1.736687    4.052239   -2.263450
H      -0.970923    1.954890    0.565824
H      -0.120477    3.907818    0.134220
H       1.754996    5.383738   -0.566216
H       3.808395    4.368001   -1.689327
H       3.171690    2.696529   -1.276675
H       1.228736    3.187930   -2.440487
