14

C      -0.074379    1.591862    0.159106
C      -0.172555    0.081943    0.299221
C      -1.309579   -0.664121   -0.250316
O      -0.033827   -0.679870   -0.894515
C       1.338006    2.056983    0.036196
N       2.069255    2.501724    1.018481
O       3.268530    2.779154    0.460010
N       3.208418    2.480338   -0.901808
N       2.056557    2.048822   -1.150175
H      -0.628785    1.907161   -0.728990
H      -0.521149    2.066756    1.037764
H       0.352567   -0.331231    1.161436
H      -1.614709   -1.601171    0.211902
H      -2.095067   -0.129436   -0.782913
