21

O       0.100331    1.218851    0.399689
C      -0.061867   -0.070548   -0.114647
C      -0.701793   -1.137907    0.733368
C      -1.465598   -0.512478   -0.428444
C      -2.642409    0.398617   -0.161971
C      -3.326789    0.917881   -1.463680
C      -4.365753   -0.232294   -1.352774
C      -3.975337   -0.364171    0.143793
O      -3.947133   -1.620153    0.769598
H       0.764905    1.179459    1.094861
H       0.719871   -0.380592   -0.808090
H      -0.343779   -2.159168    0.653013
H      -1.017704   -0.843733    1.728795
H      -1.552686   -1.130503   -1.319818
H      -2.349894    1.155674    0.567178
H      -3.781438    1.901181   -1.320214
H      -2.707482    0.951007   -2.362865
H      -5.410078   -0.020101   -1.593431
H      -4.053037   -1.117042   -1.917482
H      -4.629622    0.259204    0.761539
H      -3.228975   -2.126866    0.375896
