21

C       0.158898    1.451232   -0.307371
C       0.006941   -0.020567    0.065014
O       0.778654   -0.361833    1.218094
C      -1.459920   -0.514223    0.232211
O      -2.200853   -0.193746   -0.944755
C      -1.470877   -2.045597    0.408452
O      -1.169246   -2.694525   -0.828434
C      -2.205494    0.151210    1.398816
O      -2.522657    1.504966    1.141907
H       1.214947    1.678006   -0.481786
H      -0.404270    1.672179   -1.216614
H      -0.226526    2.100079    0.483911
H       0.439601   -0.617973   -0.750532
H       0.719925    0.372372    1.837971
H      -2.056609   -0.932586   -1.553033
H      -0.778940   -2.342982    1.202335
H      -2.480664   -2.373780    0.672474
H      -0.212707   -2.736171   -0.923037
H      -3.118488   -0.429287    1.605456
H      -1.589642    0.127116    2.303608
H      -2.913127    1.517037    0.259118
