17

C      -0.345716    1.431288    0.100995
C       0.005538   -0.037422    0.044277
C       0.579016   -0.751335   -1.112976
C       1.599527    0.093251   -1.879016
C       2.368992    0.174312   -0.525626
C       2.815594    1.498164    0.035961
O       2.503872    1.956894    1.104011
N       1.350293   -0.643865    0.206669
H       0.224064    2.043837   -0.600401
H      -1.406550    1.551132   -0.144958
H      -0.173259    1.830327    1.103153
H      -0.692256   -0.649299    0.613786
H       0.199179   -1.704996   -1.465713
H       2.144086   -0.459928   -2.644563
H       1.229818    1.025358   -2.316402
H       3.286486   -0.426686   -0.596613
H       3.524773    2.035948   -0.639714
