18

C       0.276556    0.940025   -0.455135
O      -0.270701    0.255478    0.676978
C      -1.362705   -0.507616    0.401596
C      -1.445629   -1.857708    0.163836
O      -0.415309   -2.755021    0.098163
C      -2.819396   -2.194208   -0.021737
C      -3.360765   -3.558595   -0.314725
C      -3.526074   -1.019192    0.115514
N      -2.643768    0.008212    0.355359
H       1.162650    1.472266   -0.102064
H       0.558118    0.232758   -1.244138
H      -0.440010    1.661247   -0.866818
H       0.374536   -2.312793    0.428953
H      -3.066355   -4.281745    0.454427
H      -4.453625   -3.543371   -0.360947
H      -2.991388   -3.948367   -1.270677
H      -4.587622   -0.839276    0.058988
H      -2.887889    0.939157    0.643011
