19

C      -0.035247    1.215272    0.496460
N      -0.168093   -0.177101    0.094433
C       0.578410   -0.583332   -1.088962
C      -0.972823   -1.002047    0.821588
O      -1.678940   -0.604540    1.742755
C      -1.025002   -2.478076    0.428273
C      -2.197694   -2.714323   -0.534468
N      -3.410724   -2.437728    0.019675
O      -2.038198   -3.112873   -1.672114
H      -0.414748    1.882815   -0.286714
H      -0.609210    1.366693    1.408703
H       1.018105    1.461311    0.676788
H       1.618224   -0.846028   -0.851561
H       0.098435   -1.421882   -1.592758
H       0.597371    0.254157   -1.793163
H      -0.120549   -2.856429   -0.042323
H      -1.201307   -3.023226    1.358066
H      -3.441450   -1.897542    0.873093
H      -4.210532   -2.421886   -0.592978
