18

C       0.231139    1.568971    0.080938
C      -0.203785    0.124060   -0.189749
C       0.594377   -0.515469   -1.305245
C       1.910196   -1.175833   -1.037018
C       0.712224   -2.036938   -1.437326
C       0.106750   -2.907429   -0.486472
C      -0.415155   -3.658805    0.307050
C      -0.997688   -4.501702    1.206266
N      -1.494584   -5.219181    1.974456
H       1.284889    1.616042    0.374239
H       0.105888    2.194698   -0.809418
H      -0.363241    2.011786    0.885368
H      -0.098385   -0.473866    0.722453
H      -1.269496    0.100057   -0.448343
H       0.508123   -0.012584   -2.265577
H       2.712300   -1.090742   -1.761039
H       2.234815   -1.252380   -0.005056
H       0.721442   -2.425693   -2.451431
