16

O      -0.147279    0.029217   -0.326885
C      -0.028153    1.154144    0.089765
C       1.269801    1.931338    0.038903
C       2.546776    1.219473   -0.503834
N       2.716803    2.203577   -1.628651
C       1.502421    2.076096   -2.448692
C       1.417310    2.854332   -1.196794
C       1.541633    2.679029    1.323204
O       0.851767    2.614524    2.308050
H      -0.890597    1.714386    0.503806
H       3.400508    1.268576    0.174567
H       2.381081    0.187761   -0.821886
H       1.555329    2.647417   -3.369920
H       1.010930    1.109937   -2.528000
H       1.287545    3.931704   -1.173307
H       2.458909    3.309634    1.294110
