21

C       0.000911    1.527947   -0.066424
C       0.025491   -0.002693   -0.051501
C       0.728939   -0.595246   -1.278176
C       0.745441   -2.113600   -1.249918
O       1.426308   -2.570799   -2.441627
C       1.538375   -3.891426   -2.587500
O       1.118626   -4.715831   -1.807831
C       2.265151   -4.276136   -3.864577
O       2.361684   -5.667238   -3.977912
H       1.015933    1.939511   -0.083295
H      -0.524091    1.906320   -0.950246
H      -0.505622    1.925309    0.818153
H       0.526257   -0.352954    0.860454
H      -1.001951   -0.385880   -0.000025
H       0.228923   -0.260339   -2.195168
H       1.760916   -0.227640   -1.332449
H       1.273753   -2.501719   -0.373050
H      -0.265215   -2.534510   -1.239753
H       1.720718   -3.839552   -4.715435
H       3.258759   -3.803452   -3.851352
H       1.924788   -6.021754   -3.188877
