21

C       0.252057    1.501595    0.273005
C       0.039669    0.002943    0.072547
O       0.583676   -0.636849    1.224337
C      -1.455694   -0.334513    0.015101
O      -2.322296    0.382204   -0.409074
C       0.684563   -0.508380   -1.237948
C       0.217603    0.181378   -2.509461
C       2.128099   -0.941685   -1.172780
C       1.043420   -1.977308   -1.343321
H       1.309577    1.752681    0.159865
H      -0.338190    2.070132   -0.446677
H      -0.068593    1.782012    1.279178
H       0.358628   -1.573654    1.196253
H      -1.690488   -1.357370    0.401317
H       0.509540    1.236215   -2.522768
H       0.667778   -0.295223   -3.385148
H      -0.869646    0.136849   -2.623515
H       2.760376   -0.710090   -2.023131
H       2.620425   -0.899196   -0.208818
H       0.857736   -2.647111   -0.509497
H       0.920397   -2.453473   -2.309953
