16

C       0.050434    1.400888   -0.099942
N       0.066604   -0.036748    0.004444
N       0.089425   -0.820460   -1.129732
C       0.099485   -2.060565   -0.671677
O       0.122237   -3.126585   -1.500748
C       0.084038   -2.130724    0.740980
N       0.086216   -3.190465    1.688415
C       0.063309   -0.797833    1.113059
O       0.042607   -0.269058    2.347763
H       0.941765    1.756960   -0.625658
H      -0.836745    1.735440   -0.646400
H       0.033625    1.819628    0.907122
H       0.128379   -2.778439   -2.401607
H       0.908817   -3.778852    1.595374
H      -0.719654   -3.798519    1.577144
H       0.045268   -1.032550    2.946111
