16

C      -0.170464    1.680210    0.148695
C      -0.119942    0.172183    0.115551
C      -1.342874   -0.532944   -0.476368
C      -1.633188   -0.101991   -1.844031
N      -1.861295    0.252364   -2.919630
O       1.124330   -0.410672   -0.259851
C       0.680886   -0.600493    1.097931
C       1.438766    0.023095    2.147699
C       2.063023    0.515050    3.049286
H       0.724492    2.080006    0.626566
H      -0.236107    2.075820   -0.869168
H      -1.048987    2.024293    0.704471
H      -1.177029   -1.614436   -0.476958
H      -2.223071   -0.332189    0.145681
H       0.363212   -1.620977    1.314857
H       2.619780    0.952739    3.841282
