18

C       0.064888    1.531150   -0.114304
O       1.467903    1.558002    0.222294
C       1.469979    0.145968    0.494136
C       0.018935   -0.017562   -0.031179
C      -1.012656   -0.677086    0.848847
C      -1.664899   -1.663327    0.227651
C      -1.200635   -1.785081   -1.185636
N      -1.470194   -0.544609   -1.976900
C      -0.145153   -0.753568   -1.356597
H      -0.545784    2.048453    0.637052
H      -0.143108    1.955564   -1.102293
H       2.247504   -0.387237   -0.068428
H       1.592719   -0.070568    1.563986
H      -1.200800   -0.333952    1.860683
H      -2.454085   -2.270780    0.653568
H      -1.188501   -2.738213   -1.702734
H      -1.396247   -0.771250   -2.968042
H       0.718638   -0.900067   -1.997241
