19

O       0.132234    1.377625   -0.272342
C       0.015467    0.014318    0.092468
C       0.344766   -0.284704    1.565048
O      -0.290391   -1.521176    1.826149
C      -1.567798   -1.485079    1.162552
C      -2.655754   -0.896219    2.024903
C      -3.158757    0.223467    1.510178
C      -2.533429    0.597808    0.191027
C      -1.444544   -0.486435   -0.033733
H       1.062102    1.620282   -0.228461
H       0.657041   -0.609341   -0.546463
H       1.413350   -0.406236    1.767845
H      -0.045938    0.530419    2.195310
H      -1.775916   -2.519164    0.868710
H      -2.947606   -1.356375    2.962039
H      -3.942776    0.821176    1.964574
H      -3.274060    0.585724   -0.618123
H      -2.110444    1.606903    0.201536
H      -1.588700   -0.984470   -0.993101
