18

O      -0.061036    1.413658    0.237576
C       0.009679    0.010329    0.045670
C      -1.413961   -0.530737    0.049476
C      -1.455229   -2.057247   -0.141055
C      -2.837657   -2.610707   -0.133839
N      -3.479672   -3.198397   -1.094787
C      -4.724120   -3.501176   -0.553181
C      -4.765831   -3.070780    0.727125
O      -3.559057   -2.494882    1.014363
H       0.833460    1.765966    0.221224
H       0.499920   -0.239568   -0.909809
H       0.593290   -0.474574    0.846201
H      -1.892674   -0.259510    0.996076
H      -1.981831   -0.040001   -0.748340
H      -1.006383   -2.340521   -1.096912
H      -0.870114   -2.540810    0.652084
H      -5.487313   -4.003057   -1.126206
H      -5.495015   -3.083247    1.518451
