19

C       0.136810    1.532899    0.092160
C       0.061172    0.038104    0.022928
C       0.376493   -0.778015   -1.047355
N       0.157854   -2.061893   -0.659968
N      -0.285882   -2.136290    0.610923
C      -0.344529   -0.872298    1.023872
C       0.329373   -3.279266   -1.398492
C       0.017067   -3.349989   -2.868329
C       1.449734   -3.438900   -2.389202
H       0.824701    1.869196    0.876222
H       0.487071    1.954576   -0.854313
H      -0.840112    1.979509    0.309315
H       0.733639   -0.532623   -2.035380
H      -0.676897   -0.656159    2.029488
H       0.066503   -4.118111   -0.768442
H      -0.468879   -4.243910   -3.242771
H      -0.294791   -2.433189   -3.356424
H       2.092107   -2.581902   -2.559104
H       1.959658   -4.394799   -2.430065
