18

N       0.324493   -1.130173   -0.005547
C       0.249300    0.017317   -0.108051
C       0.116862    1.470840   -0.253976
O       1.305208    2.084179    0.172212
C       1.218586    3.519871    0.244001
C       2.560516    4.041315    0.794503
C       3.351245    4.560307   -0.431312
C       2.285398    4.707312   -1.487267
C       1.122889    4.169332   -1.120606
H      -0.113269    1.691190   -1.308066
H      -0.749412    1.801960    0.343805
H       0.368724    3.769907    0.897853
H       2.366998    4.864176    1.488075
H       3.074700    3.252550    1.346549
H       3.865072    5.505187   -0.223394
H       4.125812    3.854888   -0.759037
H       2.473910    5.190443   -2.440363
H       0.221371    4.155236   -1.722448
