13

N      -0.048275    1.296861    0.341630
C      -0.073237    0.059866    0.031183
C      -1.291519   -0.719760   -0.051377
C      -1.200071   -2.012422   -0.386973
N       0.037560   -2.576067   -0.646030
C       0.170978   -3.935309   -1.002459
O       1.202579   -4.487776   -1.239491
N       1.215913   -1.838084   -0.570179
N       1.158284   -0.631305   -0.259486
H       0.921482    1.623589    0.333020
H      -2.241022   -0.246305    0.157749
H      -2.046579   -2.683805   -0.477135
H      -0.823300   -4.419547   -1.031485
