23

C       0.134395    1.578671    0.166884
C      -0.061024    0.073262   -0.031471
C       0.631706   -0.508605   -1.288067
O       2.007506   -0.134021   -1.322098
C       0.548206   -2.044618   -1.242497
O       1.365922   -2.456678   -0.143297
C       0.008878    0.052991   -2.585218
C       0.717878   -0.372883   -3.871197
O      -1.360072   -0.355037   -2.578276
H       1.194341    1.840564    0.111624
H      -0.399109    2.167052   -0.586526
H      -0.245682    1.887387    1.145678
H       0.341560   -0.462636    0.834729
H      -1.127648   -0.166247   -0.087243
H       2.447245   -0.729568   -0.701155
H      -0.491689   -2.365717   -1.112138
H       0.932500   -2.469997   -2.177245
H       1.509796   -3.404116   -0.208753
H       0.076932    1.148461   -2.513970
H       0.305571    0.176800   -4.725516
H       1.785158   -0.153459   -3.804940
H       0.584948   -1.440582   -4.068627
H      -1.773107   -0.015817   -3.377841
