20

O      -0.028123    1.243566   -0.459123
C      -0.025745   -0.163728   -0.596292
C      -1.413895   -0.745595   -0.385907
O      -2.252082   -0.177350   -1.380948
C      -3.615907   -0.513359   -1.245072
C      -4.361546   -0.011410   -2.469247
O      -4.041722   -0.765627   -3.631051
C      -2.958154   -0.379675   -4.339090
N      -2.545488   -1.097656   -5.290502
H      -0.744909    1.560283   -1.020565
H       0.345471   -0.473716   -1.586014
H       0.658536   -0.562275    0.159468
H      -1.398929   -1.843389   -0.471713
H      -1.784496   -0.479514    0.616339
H      -3.741440   -1.603861   -1.165997
H      -4.045017   -0.054700   -0.338524
H      -5.437964   -0.127662   -2.317372
H      -4.146408    1.054192   -2.625043
H      -2.537313    0.576845   -4.006127
H      -1.747823   -0.651028   -5.738064
