15

O       0.093389    1.396374    0.054357
C       0.073399   -0.005884    0.005390
C       0.128721   -0.556411    1.457516
N      -1.342794   -0.722300    1.448163
C      -1.391161   -0.624311   -0.021689
C      -2.432326    0.236283   -0.576439
N      -3.221746    0.930464   -1.056887
C       0.995482   -0.550933   -0.978463
C       1.740755   -0.988068   -1.814177
H      -0.103355    1.740164   -0.825733
H       0.704920   -1.485565    1.527894
H       0.493833    0.169933    2.187818
H      -1.695737   -1.593305    1.825861
H      -1.396938   -1.582890   -0.555427
H       2.407940   -1.371670   -2.546871
