16

C      -0.020886    1.446711    0.035443
C      -0.000599   -0.045986   -0.025296
C      -0.041050   -0.819331   -1.139624
C       0.002219   -2.193932   -0.689140
C       0.067634   -2.292288    0.660201
C       0.073043   -0.912556    1.240790
N       0.105974   -3.621069    1.031079
C       0.062119   -4.245171   -0.108247
O      -0.003466   -3.440895   -1.221946
H       0.878813    1.843323    0.523289
H      -0.079517    1.882588   -0.965586
H      -0.877222    1.815780    0.614347
H      -0.095051   -0.469160   -2.161117
H       0.976890   -0.686236    1.820535
H      -0.779110   -0.714319    1.903219
H       0.070236   -5.307189   -0.292379
