19

C      -0.116325    1.531274   -0.012061
C       0.003250    0.001345    0.012201
C       0.732760   -0.521239   -1.230419
O       1.010434   -1.908502   -1.132354
C       1.940596   -2.207529   -0.100206
C       1.633199   -1.467215    1.188308
C       0.736109   -0.487695    1.236916
C       1.939860   -3.655957    0.112469
C       1.970590   -4.838660    0.317809
H       0.871690    2.004789   -0.011803
H      -0.653933    1.870725   -0.903724
H      -0.660847    1.895247    0.864961
H      -1.011982   -0.421572    0.016188
H       0.123114   -0.400994   -2.130554
H       1.666728    0.048944   -1.373907
H       2.955929   -1.916599   -0.433920
H       2.183409   -1.790479    2.066212
H       0.523771    0.009141    2.181298
H       1.987869   -5.886425    0.490223
