23

C      -0.054591    1.446069   -0.044882
C       1.250605    0.697701    0.123858
C       1.960441    0.737575    1.467146
C       2.698521   -0.541533    1.889879
C       1.774721   -1.779145    2.021261
C       0.497553   -1.457419    2.746820
C      -0.627941   -1.075644    2.140365
C      -0.825433   -1.046244    0.639505
C      -0.030698   -0.051761   -0.210982
H      -0.492239    1.840371    0.867981
H      -0.219359    2.069885   -0.917302
H       1.936652    0.759251   -0.718987
H       2.683076    1.563373    1.434771
H       1.241416    0.998776    2.248474
H       3.500895   -0.776162    1.179112
H       3.187994   -0.348425    2.853041
H       1.544771   -2.156555    1.019502
H       2.321005   -2.576025    2.539025
H       0.532616   -1.468054    3.834982
H      -1.487971   -0.809900    2.750539
H      -0.596502   -2.048172    0.249584
H      -1.889218   -0.889576    0.423986
H      -0.057704   -0.358581   -1.255294
