19

C       0.013354    1.550418    0.146609
C      -0.047678    0.030716   -0.035532
C       0.669599   -0.488628   -1.291331
C       0.076254    0.081733   -2.590900
O       2.039534   -0.106263   -1.170574
C       0.608147   -2.024174   -1.314140
O       1.456772   -2.461815   -2.374712
H       1.049736    1.896049    0.121874
H      -0.540122    2.078683   -0.635431
H      -0.421763    1.838349    1.108486
H       0.417585   -0.450598    0.832973
H      -1.092489   -0.303502   -0.063135
H       0.248036    1.158643   -2.645178
H       0.551383   -0.386476   -3.456978
H      -1.001770   -0.104260   -2.652412
H       2.519506   -0.663582   -1.796197
H       0.964111   -2.409552   -0.348847
H      -0.425793   -2.367180   -1.468561
H       1.635274   -3.398621   -2.259774
