12

O      -0.072613    0.292374   -0.985641
C      -0.047626    1.251196   -0.250496
C      -1.295785    1.845129    0.301437
C      -1.550369    3.166560    0.223917
C      -0.620950    4.161068   -0.279809
N       0.670247    4.137914   -0.294889
C       1.385899    3.072336    0.222872
N       1.134803    1.817056    0.224313
H      -2.059329    1.148002    0.635264
H      -2.543085    3.532621    0.474343
H      -1.076783    5.076150   -0.665154
H       2.341474    3.383851    0.647520
