19

C      -0.183702    1.683535    0.262067
C      -0.124698    0.161568    0.403797
C      -1.150885   -0.550264   -0.501689
C      -1.114967   -2.003014   -0.384099
C      -1.059700   -3.200611   -0.269024
C      -1.034406   -4.661763   -0.119956
O      -2.112582   -5.146966    0.677260
C      -0.985047   -5.323943   -1.433757
C      -0.969764   -5.878932   -2.499050
H       0.551365    2.168495    0.911107
H       0.023884    1.995649   -0.767565
H      -1.172774    2.070200    0.532082
H       0.878318   -0.202418    0.155084
H      -0.309576   -0.129183    1.443759
H      -2.160392   -0.191942   -0.258528
H      -0.975109   -0.264536   -1.547608
H      -0.136217   -4.945838    0.443706
H      -2.929571   -4.895360    0.231031
H      -0.949157   -6.368747   -3.441224
