19

O       0.388337    1.091594   -0.672640
C       0.044926   -0.254009   -0.377113
C      -1.326087   -0.375160    0.279862
C      -2.531025   -0.221865   -0.710759
C      -2.669164   -1.742503   -0.699021
C      -3.587254   -2.697514   -1.309480
O      -2.255396   -2.512237   -1.832104
C      -1.780791   -1.858271    0.545466
O      -0.842120   -2.895694    0.534704
H      -0.238337    1.420294   -1.324970
H       0.093982   -0.883863   -1.279111
H       0.812693   -0.618465    0.310981
H      -1.359701    0.279896    1.153666
H      -3.392965    0.290887   -0.276304
H      -2.319305    0.211527   -1.693012
H      -3.764667   -3.658199   -0.828460
H      -4.385042   -2.346901   -1.962148
H      -2.362049   -1.927803    1.471711
H      -0.775462   -3.184919   -0.386576
