19

C      -0.176707    1.575181   -0.001566
C       0.043644    0.068118   -0.008341
C       1.166527   -0.582650   -0.865217
O       1.366636   -0.629412   -2.045960
C       1.773086   -1.273988    0.322688
C       2.081092   -0.224972    1.386428
C       0.661924   -0.654147    1.211080
C      -0.142624   -1.319091    2.288689
O      -0.841007   -0.376912    3.093121
H       0.723929    2.121001    0.295804
H      -0.458035    1.920378   -1.001027
H      -0.979009    1.842221    0.692889
H      -0.887743   -0.438967   -0.294781
H       2.232951   -2.254448    0.349895
H       2.600496   -0.628060    2.251518
H       2.417843    0.765072    1.094974
H      -0.918567   -1.954158    1.847476
H       0.507680   -1.968303    2.896735
H      -0.185730    0.204778    3.492949
