19

C       0.533239    1.227791    0.328815
C       0.200759   -0.223112    0.113290
C       0.599877   -1.129085   -1.097693
C      -0.232912   -2.061932   -0.166578
C       0.543977   -1.442004    1.039126
O       1.875124   -1.778159    1.306950
C      -1.235391   -0.882309   -0.039671
C      -2.240401   -0.802672    1.073458
O      -2.367086   -1.594245    1.975870
H       1.616908    1.354517    0.427271
H       0.195079    1.848774   -0.507605
H       0.071692    1.609313    1.245657
H       0.154710   -0.874722   -2.063503
H       1.662587   -1.352442   -1.231899
H      -0.489280   -3.108016   -0.329589
H       0.032305   -1.476807    1.998785
H       2.365163   -1.855769    0.482584
H      -1.722728   -0.581558   -0.974951
H      -2.916350    0.082142    1.001063
