20

C       0.561553    0.833638    0.686280
C      -0.234499    0.367982   -0.536317
N       0.429473   -0.460540   -1.531264
C       1.643129   -0.786371   -1.379823
N       2.309089   -1.585246   -2.312079
C       1.592645   -2.078615   -3.480662
C       3.650269   -1.891813   -2.063979
N       4.254239   -2.662421   -3.035338
O       4.234370   -1.546268   -1.053800
H       0.926042   -0.009776    1.281948
H       1.423933    1.446394    0.403538
H      -0.081563    1.441824    1.329591
H      -1.121514   -0.186429   -0.200159
H      -0.631672    1.245419   -1.065133
H       2.299236   -0.511632   -0.555999
H       1.936729   -1.593331   -4.403193
H       1.709600   -3.161787   -3.576633
H       0.540563   -1.833732   -3.338843
H       3.922846   -2.638037   -3.985209
H       5.253482   -2.724791   -2.921396
