13

C      -0.020111    1.458240    0.130022
C      -0.011675   -0.022931   -0.050812
N      -0.131374   -0.613123   -1.165167
C      -0.111298   -2.039776   -1.238411
O      -0.224942   -2.604230   -2.300551
C       0.053345   -2.731883    0.042429
C       0.169420   -1.995912    1.150216
F       0.321700   -2.468753    2.361642
O       0.145831   -0.657537    1.175369
H       0.915672    1.788296    0.592044
H      -0.143872    1.936452   -0.839935
H      -0.835454    1.753161    0.798117
H       0.079340   -3.811011    0.081399
