20

C       0.193934    1.192654    0.260158
O      -0.227680   -0.082186   -0.166316
C       0.491869   -0.567811   -1.269073
C       1.956392   -1.072876   -1.056768
C       1.581187   -2.408316   -1.765626
C       1.256396   -3.570174   -0.799579
C      -0.181925   -2.999783   -0.608546
C       0.068801   -1.966645   -1.745756
H       1.245074    1.192730    0.586122
H       0.082369    1.945114   -0.536895
H      -0.435477    1.479442    1.106241
H       0.450582    0.161255   -2.094575
H       2.732998   -0.477168   -1.541669
H       2.221105   -1.200183   -0.002291
H       2.127966   -2.633357   -2.681786
H       1.251751   -4.541409   -1.302648
H       1.886469   -3.650360    0.091961
H      -0.984830   -3.710806   -0.813292
H      -0.374977   -2.534061    0.359455
H      -0.596768   -2.022293   -2.607966
