17

O       0.384689    0.866764   -0.672723
C      -0.117806   -0.376903   -0.293120
C      -0.191216   -0.748693    1.226596
C      -1.577960   -1.398140    0.926619
C      -1.668272   -0.535597   -0.378582
C      -2.411655    0.698295   -0.207737
C      -3.049430    1.705271   -0.051528
C       0.868123   -1.544652    1.804137
C       1.759407   -2.220159    2.248441
H       1.346076    0.832570   -0.630243
H       0.356220   -1.201380   -0.843050
H      -0.340108    0.178678    1.789233
H      -1.483211   -2.461108    0.697574
H      -2.362385   -1.247655    1.666969
H      -2.020270   -1.062870   -1.269110
H      -3.603013    2.602480    0.074138
H       2.540609   -2.813006    2.655407
