17

C       0.024907    1.524743    0.073318
C      -0.064192   -0.022969   -0.022922
C       0.575835   -0.675744    1.246503
C      -0.103506   -0.285072    2.543828
O       0.489049    0.060447    3.533749
C      -1.472291   -0.433845   -0.146850
C      -2.626416   -0.756163   -0.232907
C       0.681846   -0.482533   -1.202968
C       1.323172   -0.844302   -2.151794
H       1.070187    1.828891    0.170756
H      -0.394714    1.984322   -0.823208
H      -0.531646    1.883770    0.943286
H       0.501300   -1.765604    1.145633
H       1.633540   -0.408927    1.306094
H      -1.212363   -0.359158    2.530641
H      -3.644640   -1.045919   -0.321281
H       1.876740   -1.168877   -2.998228
