14

N      -0.026653   -1.179844   -0.039379
C      -0.011701   -0.031061   -0.160658
C       0.030228    1.422038   -0.301292
C       1.298308    2.016172    0.343159
C       1.365270    3.505735    0.212872
N       0.441835    4.211237   -0.384157
O       0.846102    5.514169   -0.304345
N       2.037763    5.623344    0.351250
C       2.371146    4.406663    0.675142
H      -0.011576    1.682425   -1.363484
H      -0.864759    1.854147    0.157047
H       1.335964    1.742376    1.403544
H       2.188327    1.571191   -0.115796
H       3.285805    4.203940    1.210610
