15

C       0.009333    1.380916   -0.039339
O      -0.000339   -0.028550    0.002624
C       0.629035   -0.603536   -1.100078
C       0.581947   -2.111744   -0.990157
O       0.073856   -2.719389   -0.080327
C       1.254887   -2.853026   -2.167691
N       1.188886   -4.193521   -2.028630
O       1.769986   -2.246319   -3.088744
H       1.034753    1.782042   -0.047473
H      -0.517810    1.766547   -0.925826
H      -0.502390    1.732741    0.858967
H       0.160208   -0.317199   -2.058178
H       1.687309   -0.302021   -1.194472
H       0.733160   -4.573414   -1.214254
H       1.590821   -4.795259   -2.727023
