17

O      -0.173647    1.406897   -0.581591
C      -0.036313    0.154918    0.074329
C      -1.388045   -0.509035    0.062242
C      -1.843031   -1.279911   -1.131228
C      -1.513109   -2.031436    0.159780
C      -0.359923   -2.867390    0.225737
C       0.599844   -3.601993    0.303422
C       1.759612   -4.445277    0.363498
O       1.829338   -5.484230    0.982397
H       0.660702    1.878799   -0.501968
H       0.696904   -0.490088   -0.432259
H       0.303291    0.282542    1.113988
H      -2.151825    0.034848    0.609789
H      -2.886706   -1.242706   -1.420221
H      -1.144460   -1.395980   -1.951716
H      -2.364263   -2.390295    0.730222
H       2.623652   -4.064181   -0.219943
