19

O      -0.221151    1.455198   -0.458149
C       0.002570    0.063312   -0.347029
C      -1.254319   -0.621766    0.162178
O      -2.343937   -0.464274   -0.792473
C      -2.602906   -1.883655   -0.789211
C      -1.842702   -2.639818   -1.907957
C      -0.779286   -3.075367   -0.848233
O       0.594248   -3.022608   -1.128142
C      -1.445230   -2.155698    0.217517
H      -1.009773    1.559343   -1.004532
H       0.299830   -0.352768   -1.322914
H       0.832416   -0.079496    0.352810
H      -1.530452   -0.145289    1.112557
H      -3.655192   -2.117267   -0.617568
H      -2.372080   -3.460057   -2.398226
H      -1.470527   -1.950950   -2.671130
H      -0.965496   -4.111561   -0.549043
H       0.793311   -2.184057   -1.555022
H      -1.573288   -2.572646    1.215629
