14

O      -0.293013    1.037098    1.132589
C       0.065745    1.217751   -0.001101
C       1.462885    1.664183   -0.407343
C       1.412943    2.857412   -1.314469
N       1.583532    2.716304   -2.629270
N       1.437797    3.959937   -3.122980
C       1.180606    4.886063   -2.168856
C       1.151340    4.206396   -0.971199
H      -0.625060    1.068193   -0.861537
H       2.040512    1.857883    0.500307
H       1.928779    0.835222   -0.954175
H       1.540677    4.105209   -4.112883
H       1.044053    5.928166   -2.410873
H       0.972585    4.617974    0.008893
