18

C       0.064551    1.571524    0.014759
C      -0.005269    0.075888    0.019698
C      -1.110952   -0.712620    0.008148
N      -2.421827   -0.354927   -0.011902
C      -0.787181   -2.195188    0.081649
O      -1.530214   -2.951327   -0.872266
C       0.742300   -2.238407   -0.045546
C       1.189572   -0.766768    0.030080
O       2.345427   -0.393624    0.070921
H       1.114194    1.876174    0.031271
H      -0.400420    2.008242   -0.878945
H      -0.432299    2.010980    0.888324
H      -2.666211    0.589355   -0.263998
H      -3.068147   -1.069074   -0.313365
H      -1.119170   -2.591584    1.048029
H      -1.205869   -2.714651   -1.749129
H       1.232206   -2.835016    0.727688
H       1.042085   -2.662358   -1.010852
