16

C      -0.035722    1.574775   -0.063086
C       1.531791    1.367513   -0.007671
C       1.190687    0.167176    0.964927
C      -0.053624   -0.002822    0.007381
C       0.679731   -0.316343   -1.296886
C       1.691295    0.570779   -1.288840
O       2.440213    0.410822   -2.401662
C       1.792652   -0.624082   -3.045728
N       0.741935   -1.093586   -2.435955
H      -0.426330    2.046823    0.844041
H      -0.449602    2.045734   -0.957250
H       2.224507    2.163198    0.255426
H       1.905260   -0.657041    1.016673
H       0.914005    0.508485    1.967543
H      -0.939377   -0.562711    0.297435
H       2.221557   -0.935599   -3.983856
