14

N      -0.007404    1.358865    0.009777
C       1.170462    2.034936    0.002214
N       2.346661    1.468779   -0.012320
C       2.408283    0.107809   -0.020571
C       1.279313   -0.673204   -0.014071
N       1.115974   -2.028378   -0.020121
C      -0.207354   -2.197684   -0.008320
C      -0.977173   -0.994042    0.005909
C      -0.017421   -0.007272    0.002189
H      -0.873514    1.880906    0.021078
H       1.090290    3.117183    0.009080
H       3.401336   -0.331316   -0.032627
H      -0.627020   -3.198325   -0.009900
H      -2.052031   -0.901333    0.016815
