14

O      -0.065865    1.465454    0.000365
C       0.003785    0.102803   -0.055598
C      -1.090379   -0.920818   -0.112761
O      -0.354467   -1.709261   -1.077986
C       0.648006   -0.735788   -1.126182
N       1.655686   -0.621313   -1.854617
C      -0.295812   -0.813427    1.167022
C       0.574968   -1.838034    1.659344
C       1.314254   -2.686960    2.081040
H       0.784246    1.802690    0.307613
H      -2.164120   -0.858446   -0.221524
H       1.744428   -1.402651   -2.505996
H      -0.822006   -0.231198    1.922228
H       1.965551   -3.441665    2.446893
