18

C       0.071156    1.495226   -0.048427
C      -0.071722   -0.007912    0.043666
C      -0.440521   -0.735982   -1.298429
O      -1.416627   -1.783574   -0.960073
C      -0.911391   -2.016012    0.298698
N       0.016319   -2.856982    0.508647
C       0.972166   -2.171070    1.408737
C       0.570091   -0.689648    1.323909
C      -0.896791   -0.701491    1.073227
H       0.948816    1.775758   -0.642255
H      -0.808817    1.944903   -0.522872
H       0.184233    1.947261    0.941103
H      -0.938213   -0.039573   -1.978544
H       0.412136   -1.210993   -1.793276
H       0.935690   -2.521532    2.449910
H       1.974713   -2.390385    1.025242
H       1.020554    0.016698    2.014796
H      -1.722274   -0.318992    1.660820
