22

C       0.820160   -0.259595   -1.282900
C      -0.099646   -0.009335   -0.079792
C      -1.458827   -0.687338   -0.262599
O      -2.089166   -0.114360   -1.401408
C       0.554749   -0.488970    1.211791
C       1.821777    0.219819    1.773227
C       1.020092    0.421840    3.056972
C      -0.220530    1.167942    2.787208
N      -0.208809   -0.282755    2.506717
H       1.059772   -1.325832   -1.376876
H       0.329750    0.057810   -2.205430
H       1.763233    0.287541   -1.186301
H      -0.290362    1.069751   -0.017482
H      -1.310537   -1.772570   -0.395070
H      -2.064545   -0.545922    0.643441
H      -2.945481   -0.536492   -1.513126
H       0.731062   -1.567497    1.133666
H       2.676870   -0.449790    1.877814
H       2.153259    1.135546    1.272874
H       1.379588    0.227003    4.062211
H      -0.858195    1.415535    3.630240
H      -0.256542    1.885355    1.971302
