20

C      -0.024081    1.463257    0.010815
C      -0.029389   -0.039596   -0.069744
C       0.906864   -0.741690   -1.050298
O       0.299607   -1.999743   -1.344145
C      -0.648289   -2.245822   -0.306449
C      -1.509374   -3.425771   -0.673108
C       0.057276   -2.174073    1.074925
N      -0.306002   -0.724592    1.235856
C      -1.245285   -0.860150    0.058377
H       0.964601    1.834138    0.303265
H      -0.281623    1.909323   -0.955787
H      -0.741962    1.805505    0.759609
H       1.004912   -0.170274   -1.980622
H       1.914331   -0.879695   -0.630912
H      -0.894665   -4.323476   -0.790242
H      -2.256202   -3.615132    0.102755
H      -2.025506   -3.241182   -1.620116
H      -0.455920   -2.743803    1.853922
H       1.127807   -2.404549    1.097782
H      -2.275424   -0.522492    0.067583
