15

C      -0.016894    1.563882   -0.045763
C       0.001907    0.013579   -0.039498
C       0.775819   -0.533693    1.210614
C       2.142752   -0.030351    1.308973
N       3.218442    0.382002    1.393235
C      -1.365108   -0.516041    0.009320
C      -2.486769   -0.935525    0.087923
C       0.664315   -0.471825   -1.267589
N       1.189062   -0.843182   -2.226850
H       1.002906    1.953151   -0.078362
H      -0.566545    1.927854   -0.915040
H      -0.513042    1.922901    0.859240
H       0.218662   -0.238825    2.105043
H       0.791102   -1.626423    1.178283
H      -3.480469   -1.309146    0.138922
