19

C      -0.789272    0.713771    0.461010
C      -0.083736   -0.499548   -0.081472
O       0.263598   -1.435262    0.612280
C       0.232697   -0.552368   -1.579905
O       1.176714   -1.561607   -1.833045
C      -1.005754   -0.853528   -2.449758
C      -1.908347   -2.043927   -2.064238
C      -3.039968   -0.996551   -2.073390
O      -2.099466    0.082259   -2.303228
H      -0.087035    1.556866    0.462714
H      -1.615778    0.991563   -0.198750
H      -1.127999    0.531716    1.481818
H       0.631885    0.427000   -1.885495
H       1.222386   -2.067471   -1.004292
H      -0.653869   -0.887433   -3.488180
H      -1.981920   -2.843466   -2.800942
H      -1.690887   -2.475556   -1.085942
H      -3.751519   -1.087170   -2.902408
H      -3.596000   -0.859488   -1.139354
