19

C       0.128560    1.533695   -0.010418
C      -0.047165    0.040077    0.037139
C      -1.210784   -0.642554    0.005631
C      -1.225176   -2.155734    0.010279
C       0.142730   -2.708765   -0.368523
O       1.160846   -2.081008    0.398413
C       1.264928   -0.709967    0.113444
C      -2.529958    0.011152   -0.031409
O      -3.576108   -0.602116   -0.077973
H       0.867824    1.798475   -0.776678
H      -0.785707    2.083253   -0.228236
H       0.527830    1.900704    0.943543
H      -1.517205   -2.520593    1.002852
H      -1.996841   -2.510623   -0.680486
H       0.217585   -3.778722   -0.158827
H       0.331898   -2.558041   -1.444486
H       1.808372   -0.543231   -0.837772
H       1.888313   -0.273874    0.904558
H      -2.536739    1.118899   -0.005663
