17

C       0.074756    1.489373   -0.037177
C      -0.038109   -0.031430   -0.020494
C       0.797301   -0.742139   -1.129025
N       1.724331   -1.628566   -0.411412
C       1.512333   -1.434383    0.818818
O       0.562573   -0.540971    1.212019
C      -1.520776   -0.435723   -0.094220
N      -2.039737   -0.966072    1.038963
O      -2.150110   -0.248526   -1.118530
H       1.126604    1.788333   -0.035559
H      -0.407155    1.872519   -0.939835
H      -0.417169    1.929647    0.834810
H       0.162996   -1.309793   -1.813863
H       1.365895   -0.023048   -1.728531
H       2.032710   -1.920351    1.636810
H      -1.456600   -1.124838    1.841913
H      -3.005524   -1.248962    1.043145
