18

C      -0.012459    1.523567    0.001544
O       1.166162    0.702603    0.026193
C      -0.104623    0.068333    0.008422
C      -0.553809   -0.905062    1.112603
C      -1.004407   -1.904970    0.002902
C      -2.435931   -1.770608   -0.569840
N      -2.810949   -0.338150   -0.506330
C      -1.968626   -0.829115   -1.626100
C      -0.513561   -0.910438   -1.104993
H      -0.213728    2.079929    0.916155
H      -0.179414    2.075193   -0.923022
H       0.290908   -1.272906    1.701162
H      -1.338942   -0.539033    1.775953
H      -0.620915   -2.923225    0.045631
H      -3.202504   -2.535630   -0.599064
H      -3.763722   -0.262679   -0.860275
H      -2.292999   -0.701019   -2.651720
H       0.248735   -1.188499   -1.832083
