19

C       0.001597    1.446616   -0.008973
C       0.038038   -0.053546   -0.056389
C       0.545580   -0.962444   -1.204381
O       1.890035   -0.898832   -1.605393
C       0.099587   -1.948840   -0.125420
O       0.177617   -3.319030   -0.240623
C       0.599565   -1.022480    1.057985
C      -0.766564   -1.089756    1.769801
C      -1.133065   -1.049806    0.272089
H       1.004075    1.860659   -0.161997
H      -0.645616    1.848294   -0.796357
H      -0.371999    1.813652    0.953065
H      -0.051237   -0.948330   -2.122630
H       2.445936   -1.059167   -0.834960
H      -0.159958   -3.723043    0.567139
H       1.596536   -0.992895    1.503176
H      -1.000592   -2.009791    2.317813
H      -1.052261   -0.221437    2.371182
H      -2.114253   -1.055818   -0.205179
