19

C       0.128395    1.477862   -0.157904
C      -0.062496   -0.030675    0.039541
C      -1.547820   -0.392018    0.159526
O       0.493598   -0.721573   -1.094785
C       1.542585   -1.596964   -0.707191
C       1.655999   -1.446464    0.778140
C       0.754658   -0.563255    1.218016
C       0.530641   -0.136807    2.546177
C       0.300753    0.258544    3.661373
H       1.189273    1.716707   -0.270731
H      -0.398664    1.804758   -1.058938
H      -0.264562    2.033812    0.698545
H      -2.082392   -0.072466   -0.739717
H      -1.669843   -1.472837    0.269901
H      -1.997558    0.099628    1.027297
H       1.304600   -2.631647   -1.003603
H       2.476687   -1.325303   -1.225559
H       2.371499   -1.985087    1.385498
H       0.110168    0.597097    4.649558
