22

C       0.019538    1.552766   -0.019404
C       0.007440    0.023371    0.045984
C      -1.404975   -0.565193   -0.015700
C      -1.431959   -2.097086    0.018395
C      -2.864630   -2.698585   -0.010290
O      -2.852468   -3.595822   -1.140408
C      -1.620562   -3.461709   -1.710276
C      -1.410609   -4.278530   -2.939125
N      -0.777713   -2.683036   -1.165718
H       1.039844    1.945760    0.030794
H      -0.429028    1.912584   -0.952260
H      -0.547330    1.992779    0.809193
H       0.597495   -0.394594   -0.776091
H       0.495038   -0.308634    0.972454
H      -2.002283   -0.186034    0.825726
H      -1.908913   -0.228995   -0.932283
H      -0.887841   -2.433465    0.911167
H      -3.121150   -3.273430    0.883345
H      -3.638722   -1.941742   -0.179350
H      -1.547044   -5.341194   -2.714950
H      -2.147361   -4.011167   -3.703125
H      -0.405235   -4.111672   -3.323863
