20

C      -0.173948    1.548007    0.048374
C      -0.072080    0.024765   -0.008381
C      -1.427315   -0.621559   -0.300951
O      -1.942998   -0.272878   -1.574740
C       1.120067   -0.464998   -0.888064
C       1.971596   -0.675425    0.389778
C       0.663786   -0.605002    1.238636
C       0.686014    0.134035    2.488072
N       0.705715    0.743894    3.470947
H       0.790899    2.012151    0.272406
H      -0.503791    1.936756   -0.920807
H      -0.881428    1.874485    0.818206
H      -1.316619   -1.712007   -0.316104
H      -2.137328   -0.376126    0.505510
H      -2.282079    0.625754   -1.527444
H       0.891148   -1.401966   -1.402253
H       1.503169    0.246452   -1.621821
H       2.543853   -1.600341    0.475065
H       2.634022    0.165882    0.600953
H       0.276471   -1.610165    1.435086
