17

C      -0.015761    1.565467    0.009138
C       1.511544    1.630549   -0.004162
O       1.880004    0.906984    1.165234
C       1.028249   -0.276607    1.157851
C       1.803110   -1.476950    0.642760
C       1.791225   -1.470045   -0.688383
C       1.007401   -0.264497   -1.177079
O       1.858996    0.919186   -1.187394
C       0.039034    0.039493    0.000734
H      -0.453783    1.991292    0.914139
H      -0.469837    2.000618   -0.883430
H       2.024976    2.590523   -0.003768
H       0.589846   -0.389709    2.152613
H       2.338960   -2.163180    1.286814
H       2.315425   -2.149510   -1.348985
H       0.551296   -0.367317   -2.164974
H      -0.884809   -0.535329    0.006001
