18

C       0.191131    1.543888   -0.322682
C       0.089858    0.106316   -0.116170
C       0.007282   -1.083899    0.047124
C      -0.097454   -2.517028    0.264584
C       0.371091   -2.978202    1.664149
O      -0.277276   -4.237144    1.880576
C      -1.398101   -4.341261    1.097970
N      -2.185651   -5.326325    1.102310
C      -1.526939   -3.102123    0.239896
H       0.880501    1.780161   -1.140578
H      -0.782704    1.978492   -0.573394
H       0.557935    2.049881    0.577063
H       0.505181   -3.048299   -0.483156
H       1.449607   -3.131939    1.733230
H       0.059689   -2.263062    2.434857
H      -1.883114   -6.022866    1.785917
H      -2.230522   -2.404629    0.707276
H      -1.899144   -3.340319   -0.755843
