16

C      -0.167563    1.488576   -0.031204
C       0.032656    0.012766    0.007504
C       0.037080   -1.100457   -0.979958
N       1.282330   -1.677163   -0.459241
C       0.970110   -0.955719    0.815125
C      -0.352834   -1.571190    1.358638
O      -0.703718   -1.970993    2.433851
C      -1.055575   -1.121971    0.113735
O      -2.390603   -0.956677   -0.134302
H       0.704762    1.997902   -0.453379
H      -1.039940    1.733757   -0.644638
H      -0.343318    1.888458    0.972755
H      -0.237184   -1.094970   -2.030161
H       1.251379   -2.694424   -0.350732
H       1.789426   -0.688986    1.478527
H      -2.700025   -1.671540   -0.701713
