12

O      -0.040122    0.058620    0.289382
C       0.002583    1.216697    0.017564
O      -1.122473    1.946256   -0.291510
C      -0.791685    3.243554   -0.810565
C      -1.602416    4.271291   -0.148919
N      -2.228194    5.110500    0.336811
C       0.708136    3.417565   -0.576128
O       1.044050    3.268383    0.790772
C       1.197846    2.131069   -0.077711
H      -1.013702    3.253723   -1.884542
H       1.285063    4.119606   -1.168204
H       2.195550    1.729922   -0.206798
