16

C       0.210820    1.347489    0.133832
O       0.349421   -0.081158    0.077291
C       0.483984   -0.599197   -1.146892
O       0.495216    0.041499   -2.169506
C       0.622385   -2.094059   -1.111231
C       0.030270   -2.834325   -2.319679
C       1.503130   -2.695491   -2.216457
C       0.595622   -2.758075    0.163801
N       0.578652   -3.326547    1.170578
H       1.090552    1.832743   -0.295027
H      -0.676268    1.666204   -0.418273
H       0.114234    1.589416    1.191382
H      -0.422909   -3.795782   -2.112611
H      -0.491461   -2.198500   -3.024219
H       1.989835   -1.964612   -2.850323
H       2.094137   -3.558518   -1.936204
