19

C      -0.108964    1.340251   -0.035740
O       0.139479   -0.046455    0.039823
C       0.688106   -0.592996   -1.124376
C       0.940436   -2.116959   -0.970688
C      -0.540417   -2.573312   -0.798601
O      -1.272386   -1.720518   -1.687123
C      -0.293608   -0.844043   -2.301489
C       0.591057   -1.678754   -3.204896
C       1.328363   -2.450505   -2.394479
H       0.805050    1.901586   -0.284873
H      -0.879535    1.583058   -0.780897
H      -0.461619    1.658539    0.947907
H       1.587431   -0.048089   -1.440632
H       1.612924   -2.429409   -0.173246
H      -0.685103   -3.622996   -1.077378
H      -0.885881   -2.410790    0.227580
H      -0.824392   -0.000599   -2.739540
H       0.550682   -1.694681   -4.286313
H       2.020864   -3.233748   -2.676327
