14

N      -0.002008    1.216534    0.288314
C       0.005678   -0.008388    0.013579
O       1.157484   -0.738680   -0.256753
C       0.875584   -2.042964   -0.635678
O       1.726767   -2.798380   -0.978569
C      -0.630014   -2.271439   -0.493809
O      -0.936400   -2.864701    0.784287
C      -1.559298   -1.641106    1.248144
C      -1.197161   -0.910325   -0.069639
H       0.942802    1.603916    0.295684
H      -1.041986   -2.831066   -1.336568
H      -2.634037   -1.775886    1.406260
H      -1.096485   -1.253117    2.160345
H      -2.016616   -0.454879   -0.620063
