17

O      -0.280565    0.534989   -0.814296
C       0.146455    1.111715    0.160917
C       1.362322    1.944592    0.174214
C       1.884056    2.660691    1.404892
C       3.106071    3.315080    0.794136
C       3.693277    2.448634   -0.305870
C       2.862454    3.667152   -0.662660
C       1.708074    2.736260   -1.102045
C       2.525576    1.537281   -0.750992
H      -0.380201    1.039538    1.139650
H       1.169428    3.395030    1.794053
H       2.143535    1.966397    2.212369
H       3.770524    3.939551    1.379586
H       4.748290    2.262279   -0.446961
H       3.157304    4.595680   -1.130193
H       0.985987    2.873273   -1.894207
H       2.560944    0.563398   -1.217901
