14

O       0.047954    1.385813   -0.142066
C       0.006427    0.017447   -0.067731
C      -0.254571   -0.804619    1.140938
C      -1.204225   -0.989697   -0.064187
O      -2.551739   -0.746761    0.048345
C      -0.509174   -1.753979   -1.147340
O      -0.851854   -2.620794   -1.901181
C       0.733996   -0.814479   -1.118937
H      -0.491278    1.758418    0.564315
H       0.423782   -1.586464    1.476509
H      -0.769765   -0.282747    1.944995
H      -2.959162   -1.459770    0.553843
H       0.821659   -0.293402   -2.076636
H       1.699519   -1.244452   -0.838105
