22

C       0.427695   -0.069627    1.604012
C      -0.000950   -0.132558    0.134950
C      -1.402259   -0.697742   -0.078306
C      -1.694517   -1.388434   -1.390803
C      -1.569743   -2.199013   -0.125234
N      -2.478137    0.075008    0.495221
C      -2.889673    1.300213   -0.174600
C      -3.004453   -0.221557    1.722535
O      -3.850354    0.428425    2.302205
H       1.442083    0.329992    1.695073
H      -0.235648    0.576221    2.187279
H       0.416037   -1.063487    2.063799
H       0.053459    0.869465   -0.309427
H       0.705786   -0.750675   -0.430622
H      -2.688451   -1.274583   -1.808242
H      -0.897985   -1.438174   -2.124717
H      -0.681992   -2.805019    0.020007
H      -2.476538   -2.631119    0.279777
H      -3.170374    1.093101   -1.211971
H      -3.744692    1.702995    0.367926
H      -2.087674    2.048249   -0.176768
H      -2.573312   -1.150137    2.137436
