19

C      -0.652509    1.314114    0.240266
C      -0.060742   -0.069757    0.003399
C       0.750647   -0.342944   -1.301618
C       1.764179    0.736954   -1.722131
O       2.785523    0.192111   -0.846271
C       1.929818   -0.901671   -0.460987
C       1.153656   -0.602130    0.851187
C       1.904277    0.278450    1.818609
O       1.473705    1.268578    2.352465
H       0.101479    2.102951    0.221137
H      -1.401293    1.532280   -0.530350
H      -1.140998    1.367847    1.216256
H      -0.868465   -0.805918    0.064965
H       0.248394   -0.891063   -2.097605
H       2.076609    0.675682   -2.771845
H       1.524139    1.778177   -1.482778
H       2.408249   -1.875942   -0.587886
H       0.907108   -1.521133    1.400243
H       2.934477   -0.085654    2.036125
