19

C       0.014660    1.620437   -0.114074
C       0.064460    0.092823    0.006450
C       0.785745   -0.603101   -1.178232
C       1.537191   -1.813110   -0.589389
O       2.786481   -1.962038   -1.252623
C       1.641802   -1.456019    0.875244
C       0.838349   -0.435417    1.205471
C       0.681385    0.032534    2.588735
O      -0.117128    0.865869    2.957197
H       1.026078    2.039351   -0.159010
H      -0.508832    1.911871   -1.030644
H      -0.501695    2.062003    0.739829
H      -0.968930   -0.274258    0.079567
H       0.111387   -0.877154   -1.992382
H       1.547275    0.068852   -1.588815
H       0.945171   -2.738122   -0.695532
H       3.165172   -2.811265   -1.004588
H       2.268796   -2.005542    1.572101
H       1.366459   -0.461136    3.314926
