16

C      -0.153891    1.538012   -0.035741
C      -0.017975    0.044787    0.009737
N       0.310442   -0.667205    1.021487
O       0.516283    0.086420    2.175074
C      -0.236293   -0.746589   -1.265272
C       1.041220   -0.656652   -2.106021
O       1.249388    0.226091   -2.895749
C      -0.634163   -2.190020   -0.983838
O      -0.138928   -3.135073   -1.539844
H       0.359881    2.004258    0.804422
H       0.249904    1.918239   -0.978773
H      -1.212265    1.823350    0.005642
H       0.780705   -0.583370    2.815388
H      -1.044915   -0.272497   -1.838382
H       1.783967   -1.448451   -1.889823
H      -1.446134   -2.306585   -0.237650
