19

C       0.954440   -1.389929    0.160239
C      -0.050303   -0.727940   -0.783968
O      -0.069119   -1.379162   -2.054991
C      -1.480856   -0.597033   -0.262712
C      -2.312417    0.408584   -1.041652
O      -1.916413    1.731943   -0.725132
C      -2.160255   -1.738317    0.403931
N      -1.784233   -0.541091    1.181024
H       1.909376   -1.489891   -0.361409
H       1.128620   -0.790978    1.060078
H       0.637892   -2.393998    0.466642
H       0.298313    0.286967   -1.005544
H      -0.464941   -2.248848   -1.926863
H      -2.148048    0.276285   -2.114602
H      -3.379877    0.249752   -0.829473
H      -2.017856    1.808992    0.231714
H      -3.228802   -1.883939    0.270385
H      -1.603592   -2.655851    0.577586
H      -0.953725   -0.744632    1.730347
