14

N      -0.006657    1.354136    0.059833
C       0.032605   -0.000519   -0.138129
O       1.063188   -0.596370   -0.388470
C      -1.283322   -0.715203   -0.059621
C      -2.537641   -0.115873   -0.158538
N      -3.675600   -0.809079   -0.090649
C      -3.544168   -2.126072    0.074201
N      -2.405586   -2.819423    0.160827
C      -1.284269   -2.104963    0.086903
H       0.887455    1.817233    0.114162
H      -0.774787    1.786356    0.544663
H      -2.641624    0.955065   -0.322709
H      -4.465847   -2.699162    0.139491
H      -0.338173   -2.635393    0.143336
