17

C      -0.073306    1.528092   -0.006850
C       0.067487    0.037948   -0.021518
C       0.075928   -0.901229   -1.182134
C       1.275901   -1.791570   -1.072376
C       1.755565   -1.729764    0.172551
C       0.850735   -0.854135    1.008374
C      -0.519768   -1.594457    1.157722
O      -1.032268   -2.152218    2.088611
C      -1.044095   -1.052968   -0.122316
H       0.889321    2.014137   -0.201110
H      -0.779296    1.860419   -0.774371
H      -0.438886    1.882963    0.962670
H      -0.289245   -0.559409   -2.145270
H       1.647266   -2.398954   -1.887053
H       2.572564   -2.306104    0.586071
H       1.252229   -0.415376    1.920564
H      -2.086680   -0.959105   -0.398385
