21

O      -0.234573    1.338775   -0.774919
C      -0.050505    0.083081   -0.141108
C      -1.392047   -0.637090   -0.132498
C      -1.324566   -2.010065    0.548828
C      -2.668955   -2.698992    0.543314
O      -3.112312   -3.278317   -0.690990
C      -2.898705   -4.149351    0.434838
C      -1.829552   -5.196458    0.245411
O      -2.263227   -6.196556   -0.661971
H       0.612750    1.792658   -0.797563
H       0.696002   -0.528769   -0.674447
H       0.312347    0.206836    0.893275
H      -2.125858    0.001482    0.374453
H      -1.737699   -0.755996   -1.165184
H      -0.580015   -2.635529    0.047094
H      -0.997633   -1.895479    1.591506
H      -3.452856   -2.130743    1.051219
H      -3.825237   -4.543997    0.856797
H      -0.890000   -4.735852   -0.087907
H      -1.635690   -5.706858    1.195362
H      -2.505503   -5.742049   -1.476993
