19

C      -0.019572    1.486979    0.082807
C       1.304736    0.770678   -0.049633
C       2.185051    0.508334    1.220051
C       1.598706   -0.826201    1.721547
C       0.749698   -1.300877    2.950552
C      -0.167066   -0.080314    2.819374
C       0.121900   -0.673113    1.402321
O      -0.138359   -2.021802    1.967992
C      -0.010265   -0.020109    0.047686
H      -0.260453    1.976574    1.021100
H      -0.394180    2.007774   -0.792816
H       1.817529    0.849764   -1.001740
H       3.239863    0.426746    0.948451
H       2.098251    1.330139    1.936646
H       2.034280   -1.679017    1.194423
H       1.034729   -1.872573    3.833683
H      -1.186174   -0.226065    3.177790
H       0.237928    0.898730    3.081529
H      -0.426408   -0.561354   -0.792896
