17

O       0.181745   -0.019739    0.251606
C       0.079084    1.151160    0.061195
C      -1.031621    2.224512    0.019863
O      -0.099842    2.989853    0.863233
C       0.980360    2.406181    0.052234
C       0.721067    3.032902   -1.330829
C       0.818954    2.110732   -2.582724
C      -0.735919    1.970338   -2.607742
C      -0.844755    2.891518   -1.356021
H      -2.023461    2.094624    0.448525
H       1.965235    2.454778    0.512699
H       1.151609    4.030870   -1.417086
H       1.228784    2.610915   -3.462042
H       1.374234    1.181492   -2.431282
H      -1.200422    2.391580   -3.501126
H      -1.120362    0.956249   -2.471424
H      -1.444080    3.796496   -1.458846
