16

N      -0.169832   -1.129723   -0.156498
C      -0.092850    0.011965   -0.001023
C       0.014627    1.455986    0.225441
N       1.287820    1.970291   -0.268584
C       1.446350    3.394637   -0.090640
C       1.779459    4.015741    1.299630
O       2.951212    4.657325    0.761816
C       2.813721    3.974913   -0.499901
H      -0.797769    1.952703   -0.319756
H      -0.169256    1.642314    1.298638
H       2.056318    1.467637    0.165450
H       0.605227    3.896548   -0.578555
H       1.070100    4.739510    1.717195
H       2.030415    3.271341    2.070726
H       3.588037    3.208109   -0.646259
H       2.830564    4.663500   -1.351141
