20

C      -0.145587    1.568910   -0.171857
C       0.062420    0.061119   -0.125385
C       1.252519   -0.593708   -0.915230
C       1.731877   -1.269346    0.375362
C       2.042766   -0.220612    1.406344
C       0.608937   -0.579901    1.164547
N      -0.201806   -1.094425    2.211559
C      -0.366705   -0.503860    3.434507
O       0.192878    0.496310    3.821305
H       0.767958    2.109637    0.094114
H      -0.445685    1.893620   -1.174293
H      -0.928081    1.877323    0.529499
H      -0.868593   -0.445483   -0.405358
H       0.918202   -1.288724   -1.688349
H       1.965836    0.107427   -1.360988
H       2.096561   -2.285548    0.464744
H       2.437601   -0.587051    2.346582
H       2.427568    0.752332    1.113176
H      -0.795025   -1.885116    2.006403
H      -1.086041   -1.075225    4.057384
