18

O       0.142223    1.346409   -0.216547
C       0.057632   -0.044729   -0.017149
C       0.276336   -0.553920    1.419915
C       0.083487   -2.056062    1.454080
C      -1.124710   -1.165855    1.448913
O      -2.052792   -1.135842    2.471531
C      -1.375704   -0.635194    0.053088
C      -2.586502    0.048507   -0.438441
N      -2.199079   -1.281124   -0.965437
H      -0.453954    1.768759    0.412704
H       0.717880   -0.491613   -0.768531
H       0.821844   -0.020264    2.187868
H       0.336555   -2.670172    0.592334
H       0.298780   -2.510731    2.416383
H      -2.495213   -1.991407    2.500430
H      -3.485299    0.051751    0.171605
H      -2.448752    0.921879   -1.070827
H      -1.769439   -1.173407   -1.882061
