16

O      -0.095538    1.407193   -0.000064
C      -0.019007    0.019657    0.007477
C       0.323532   -0.829408    1.291336
C      -0.357887   -1.931690    0.427560
O      -0.779855   -3.100251    1.050116
C      -1.340148   -0.801621   -0.067058
C       0.613575   -1.999572   -0.768947
C       0.834514   -0.714105   -1.047547
H       0.791482    1.760706    0.126772
H       1.375603   -0.972205    1.547178
H      -0.272731   -0.540429    2.161373
H      -1.242872   -3.640035    0.400413
H      -2.067322   -0.509266    0.695667
H      -1.803531   -0.917411   -1.049183
H       0.996575   -2.902843   -1.224615
H       1.440038   -0.245053   -1.811452
