19

O       0.496873    0.635649   -0.931218
C      -0.043486    0.192733    0.304572
C      -1.476908   -0.277941    0.179978
N      -1.882164   -1.040203   -1.017121
C      -2.468517    0.295582   -0.770280
C      -3.833307    0.264693   -0.095428
N      -3.665366   -0.297394    1.267219
C      -3.270241   -1.712094    1.341888
C      -2.236629   -0.650069    1.436585
H       0.122929    1.501166   -1.124417
H       0.591435   -0.642560    0.622745
H       0.028713    0.969122    1.080787
H      -1.137331   -0.933679   -1.706245
H      -2.227603    1.101851   -1.458800
H      -4.216669    1.286069    0.008735
H      -4.568186   -0.315131   -0.663019
H      -3.608458   -2.220263    2.241410
H      -3.274159   -2.305109    0.433232
H      -1.777832   -0.392064    2.388382
