13

O      -0.016037   -0.019525    0.062059
C       0.011700    1.167075    0.008077
O      -1.107529    1.957666    0.152841
C      -0.689279    3.298954   -0.011896
C       0.478572    3.827825    0.816873
C       1.319972    2.650136    1.277585
N       1.183713    2.016365   -0.116448
C       0.659746    3.329242   -0.613144
H      -1.488360    3.966417   -0.301844
H       0.488268    4.839304    1.203269
H       2.367874    2.907174    1.439312
H       0.959052    2.027959    2.102639
H       1.002991    3.774692   -1.536964
