15

C       0.024489    1.462185    0.035456
N      -0.020542    0.013872    0.000867
C      -0.196817   -0.807869   -1.095353
N      -0.188110   -2.073423   -0.782284
C       0.003361   -2.114475    0.594172
C       0.082965   -3.274634    1.392289
C       0.161738   -4.217018    2.141674
C       0.105918   -0.822217    1.070512
O       0.292348   -0.309868    2.300681
H       0.985455    1.811830    0.423087
H      -0.106772    1.837847   -0.980429
H      -0.773383    1.860657    0.668386
H      -0.323900   -0.395664   -2.085467
H       0.227032   -5.065179    2.776596
H       0.357554   -1.053527    2.914142
