18

C       0.002396    1.347999    0.637058
O      -0.119408   -0.021049    0.991158
C       1.054172   -0.614917    1.453854
C       0.709743   -1.903981    2.219799
C      -0.742122   -2.296954    2.297551
O       1.596409   -2.554309    2.734101
C       2.072786   -0.891066    0.302115
N       3.235210   -1.457799    0.722254
O       1.837280   -0.557365   -0.839674
H       0.675987    1.480599   -0.213862
H      -0.999150    1.689173    0.366789
H       0.361867    1.943299    1.490748
H       1.574190    0.033116    2.181629
H      -1.319641   -1.503579    2.781363
H      -1.154293   -2.395186    1.288343
H      -0.835841   -3.233064    2.848298
H       3.231122   -1.945207    1.609127
H       3.872893   -1.764978    0.003754
