13

C      -0.007641    1.410788    0.001382
O       0.003586   -0.023718   -0.000318
C       0.596715   -0.599041   -1.040333
N       1.151128    0.073631   -2.027749
O       1.651023   -0.886309   -2.898801
C       1.375596   -2.109482   -2.395998
C       0.706711   -2.008424   -1.217255
C       1.804927   -3.236603   -3.139532
N       2.148217   -4.168094   -3.733765
H       1.013603    1.802421    0.000866
H      -0.536144    1.791334   -0.877357
H      -0.527182    1.699037    0.914557
H       0.348693   -2.794309   -0.575554
