21

C      -0.622116    1.577641   -0.300211
C      -0.234828    0.106069   -0.205101
C       1.003223   -0.458972   -1.010144
C       1.840481    0.475332   -1.864440
O       1.056550    0.844356   -2.994421
C       1.601952   -0.975636    0.303902
C       1.785888    0.150545    1.304572
C       0.417308   -0.425678    1.082012
O      -0.283950   -1.071137    2.088628
H       0.190922    2.240103    0.015137
H      -0.882455    1.840835   -1.328915
H      -1.485696    1.792534    0.339412
H      -1.106435   -0.514192   -0.434038
H       0.680054   -1.286413   -1.648245
H       2.148614    1.363092   -1.292631
H       2.761341   -0.046318   -2.173357
H       1.558247    1.478437   -3.514873
H       2.116809   -1.920429    0.429425
H       2.244048   -0.167433    2.236023
H       2.053759    1.157295    0.995649
H      -0.523325   -0.419333    2.756191
