21

C      -0.969590    1.174618    0.528369
C      -0.430437   -0.247110    0.623938
C       0.383718   -0.821260   -0.573600
C       1.476447   -1.334466    0.401670
C       2.624042   -0.352989    0.595609
O       3.071332   -0.497196    1.945799
C       1.925815    0.344136    1.699934
C       2.012891    1.737530    2.238386
C       0.727671   -0.615606    1.604856
H      -0.200104    1.881198    0.201875
H      -1.785931    1.225937   -0.200959
H      -1.363673    1.523235    1.489681
H      -1.265928   -0.920996    0.842267
H      -0.129132   -1.601443   -1.139990
H       0.741612   -0.069000   -1.284392
H       1.717625   -2.397702    0.394412
H       3.340869    0.015773   -0.131812
H       1.253239    2.391404    1.803797
H       1.867990    1.733738    3.325079
H       3.001042    2.157941    2.033005
H       0.448658   -1.115364    2.534836
