15

O      -0.063698    0.125102   -0.682960
C       0.060225    1.028927    0.102794
C       1.244923    1.915151    0.189677
C       1.607785    2.959912    1.254827
C       2.213559    3.865821    0.109034
C       3.601445    4.270395    0.191765
C       4.753803    4.604342    0.262751
C       1.854985    2.742229   -0.893638
O       2.455778    1.541905   -0.471173
H      -0.739490    1.289217    0.832312
H       0.742791    3.424916    1.732058
H       2.314402    2.613304    2.009459
H       1.567764    4.734077   -0.056182
H       5.774010    4.893029    0.321970
H       1.580002    2.831924   -1.938641
