20

C       0.890175   -0.514366   -1.311626
C       0.043856    0.131503   -0.221142
O      -0.114982    1.505112   -0.559470
C      -1.332369   -0.507951   -0.100027
C      -1.558461   -1.901995    0.571937
O      -0.476070   -2.555870    1.202152
C      -2.477421   -1.185357    1.547495
C      -1.752552   -0.105403    2.237374
N      -2.270575    0.169147    0.878739
H       1.831083    0.031069   -1.422682
H       1.124550   -1.552553   -1.056745
H       0.367827   -0.492565   -2.273313
H       0.583726    0.039155    0.733164
H      -0.847598    1.844584   -0.031045
H      -1.817768   -0.464736   -1.080378
H      -2.099843   -2.585938   -0.091421
H      -0.024492   -3.098385    0.548233
H      -3.460213   -1.526453    1.853525
H      -2.295723    0.444508    2.999158
H      -0.686839   -0.200496    2.416290
