15

N      -0.102329    1.444700    0.009084
C      -0.004633    0.030417   -0.014298
C      -1.086783   -0.814248    0.004118
N      -2.442443   -0.508442    0.047086
C      -3.453867   -1.415473    0.061402
O      -3.302017   -2.625253    0.038892
N      -0.588265   -2.089399   -0.028574
C       0.773268   -1.967252   -0.065079
N       1.154962   -0.710089   -0.057977
H       0.396119    1.820696    0.811844
H       0.349589    1.844299   -0.809660
H      -2.645627    0.481127    0.067488
H      -4.445810   -0.932709    0.096592
H      -1.180764   -2.907441   -0.024584
H       1.422439   -2.828655   -0.095820
