15

N       0.616547    0.898505   -0.909768
C       0.218899   -0.290925   -0.299217
C      -1.059538   -0.803972   -0.155771
N      -0.955385   -1.918690    0.618885
N       0.303492   -2.190111    0.981646
C       1.021032   -1.211873    0.429533
N       2.403501   -1.210233    0.688230
C       3.404363   -0.714234   -0.082530
O       3.280837   -0.106578   -1.130418
H       1.561219    0.819092   -1.280332
H      -0.028406    1.204991   -1.625902
H      -2.008144   -0.450352   -0.526359
H      -1.691960   -2.531736    0.919375
H       2.672889   -1.776035    1.480409
H       4.392859   -0.921463    0.366770
