23

O      -0.098399    1.288857   -0.761367
C      -0.015426    0.125289    0.054383
C      -1.355638   -0.559823    0.017915
C      -1.706079   -1.509696   -1.101851
C      -1.530610   -2.035883    0.301420
C      -0.388620   -2.966091    0.673256
C      -0.751786   -4.429495    0.507390
C      -0.573183   -5.125895   -0.817691
C       0.322689   -5.473984    0.347201
H       0.728761    1.771904   -0.673615
H       0.772665   -0.552049   -0.308527
H       0.239634    0.393492    1.092842
H      -2.159167    0.083417    0.366909
H      -2.699807   -1.467344   -1.533598
H      -0.921816   -1.732136   -1.819367
H      -2.454819   -2.277611    0.822638
H       0.495241   -2.748712    0.061776
H      -0.091399   -2.785711    1.716241
H      -1.621831   -4.735938    1.084133
H      -1.318282   -5.849287   -1.130022
H      -0.141416   -4.557153   -1.634664
H       1.354014   -5.137284    0.310438
H       0.189531   -6.434716    0.832429
