16

C      -0.279820    1.487386    0.046824
C       0.123885    0.027141    0.001288
O       1.338831   -0.192457   -0.759463
C       1.977108   -0.897175    0.330773
C       0.782131   -0.611427    1.229446
C       0.698986   -0.213314    2.647711
N       0.216005   -1.537226    2.194624
H       0.519444    2.098614    0.475172
H      -0.490985    1.850683   -0.963797
H      -1.186411    1.619885    0.648225
H      -0.697837   -0.584525   -0.404145
H       2.131661   -1.960495    0.108410
H       2.932631   -0.438899    0.612700
H       1.584377   -0.243324    3.277572
H      -0.028924    0.544935    2.926479
H      -0.800107   -1.540928    2.131816
