17

O       0.032137    0.048829   -0.043405
C       0.014320    1.250961   -0.003760
C      -1.209377    2.188620    0.010201
C      -0.456802    3.516275    0.064356
C       0.747170    3.379835   -0.946869
C       1.661921    4.534235   -0.539968
C       1.643509    4.490389    0.792371
C       0.719058    3.312463    1.097098
C       1.173521    2.220283    0.044068
H      -1.820212    2.055962   -0.888945
H      -1.844670    1.997615    0.881467
H      -1.027519    4.445418    0.087130
H       0.580654    3.175269   -2.005204
H       2.169554    5.209915   -1.212692
H       2.131781    5.119911    1.521813
H       0.523710    3.038820    2.134695
H       2.184178    1.815404    0.044607
