18

C      -0.483720    1.514681   -0.013799
C       0.107904    0.118941   -0.083133
O       1.223104    0.117871   -1.015250
C       2.149699   -0.703541   -0.452856
N       3.250372   -0.913741   -1.240557
N       1.960075   -1.150272    0.726583
C       0.730861   -0.501354    1.210367
C       1.055582    0.480830    2.340170
H       0.244692    2.239200    0.358145
H      -0.813269    1.836831   -1.005643
H      -1.353250    1.523356    0.650709
H      -0.638612   -0.574701   -0.491849
H       3.078202   -0.892106   -2.233932
H       3.831138   -1.676510   -0.928792
H       0.049898   -1.263775    1.606440
H       1.728725    1.272949    1.997667
H       0.151081    0.943630    2.748541
H       1.560734   -0.057094    3.146587
