19

C      -0.227558    1.512833   -0.064457
N      -0.171968    0.070642    0.042090
C      -1.350833   -0.645748    0.572816
C      -0.393077   -1.541334    1.359094
C      -0.620464   -2.412407    2.523045
N      -0.215889   -2.980797    1.218771
C       0.728414   -0.529948    1.048722
C       2.010971   -1.112456    0.489056
O       3.046104   -1.172714    1.099641
H       0.746040    1.898425   -0.383049
H      -0.964815    1.798889   -0.821718
H      -0.500176    2.009366    0.885505
H      -1.990146   -0.026792    1.223603
H      -1.978832   -1.122086   -0.190729
H       0.129956   -2.489409    3.305131
H      -1.645490   -2.550108    2.859748
H      -1.016550   -3.392373    0.744708
H       0.963159    0.117844    1.907057
H       1.905790   -1.495448   -0.549039
