18

C       0.043208    1.424637    0.044480
O       0.026160    0.018159   -0.015337
C       0.643498   -0.582807    1.101162
C       0.571199   -2.065659    0.937422
C       0.022891   -2.799476   -0.086704
N       0.234578   -4.088220    0.276121
C      -0.128323   -5.307482   -0.416367
N       0.878197   -4.150731    1.457902
N       1.081771   -2.927144    1.859190
H       1.071065    1.819132    0.073413
H      -0.452961    1.795624   -0.855361
H      -0.493751    1.801711    0.929036
H       1.695306   -0.261235    1.189090
H       0.144272   -0.279394    2.037165
H      -0.475140   -2.515247   -0.996739
H       0.354257   -5.353876   -1.396580
H       0.214307   -6.140263    0.197528
H      -1.212366   -5.370991   -0.545464
