18

O      -0.009298    1.403275   -0.082509
C       0.012120    0.007651   -0.022214
C      -0.434307   -0.683345    1.245295
C      -1.313895   -0.699400    0.014760
C      -2.575039    0.126268    0.007460
O      -3.063838    0.312637   -1.333097
C      -2.854210   -0.709529   -2.193974
N      -2.196950   -1.779373   -2.041139
C      -1.499670   -1.981825   -0.773998
H       0.709487    1.737575    0.463843
H       0.803961   -0.463607   -0.605181
H       0.051656   -1.607150    1.544094
H      -0.736747   -0.041944    2.067850
H      -3.363378   -0.367642    0.590735
H      -2.405788    1.126740    0.405752
H      -3.356500   -0.500008   -3.137056
H      -0.529941   -2.446937   -0.989106
H      -2.061134   -2.716335   -0.178499
