14

O      -0.081750    1.238756    0.179379
C       0.059719   -0.076040    0.054056
N       1.163262   -0.740571   -0.160378
C       0.687990   -2.033000   -0.149295
C      -0.627496   -2.092787    0.086054
C      -1.173283   -3.452991   -0.155501
C       0.222136   -4.191446   -0.220298
O       1.291945   -3.208424   -0.426298
O      -1.078995   -0.780644    0.194440
H       0.798566    1.623723    0.079027
H      -1.789859   -3.879213    0.642611
H      -1.735519   -3.544568   -1.095244
H       0.424542   -4.693972    0.730057
H       0.287210   -4.914460   -1.034092
