21

C      -0.050697    1.563769    0.091077
C      -0.071529    0.036254    0.012773
C       0.730924   -0.606715    1.164868
C      -1.495510   -0.512109    0.031968
O      -2.436395    0.169340    0.423839
C      -1.702629   -1.891498   -0.453143
C      -2.817261   -2.728319    0.193141
C      -3.061608   -2.168734   -1.156734
O      -3.956991   -1.149205   -1.389568
H       0.979590    1.931991    0.075889
H      -0.589526    2.011868   -0.748095
H      -0.530718    1.909237    1.010230
H       0.384226   -0.290856   -0.931999
H       0.310790   -0.317173    2.133656
H       0.728144   -1.699161    1.107505
H       1.771063   -0.269240    1.132619
H      -0.830887   -2.417955   -0.824250
H      -2.624356   -3.789260    0.307954
H      -3.328545   -2.251343    1.022994
H      -3.004687   -2.838478   -2.008870
H      -3.819189   -0.488568   -0.687058
