19

C      -0.180109    1.481850    0.068653
C       0.134904   -0.014357   -0.005548
C       0.670488   -0.556241    1.311524
O       0.941687   -1.941249    1.142315
C       1.485517   -2.561359    2.296378
C       0.512498   -2.655353    3.400499
C      -0.282580   -2.706013    4.299363
C       1.982652   -3.886927    1.918312
C       2.414160   -4.967773    1.626471
H       0.713275    2.067229    0.312826
H      -0.565142    1.848317   -0.887112
H      -0.934710    1.694022    0.834011
H      -0.764454   -0.580118   -0.273396
H       0.873608   -0.210410   -0.790856
H       1.594537   -0.026757    1.601762
H      -0.061170   -0.405953    2.119327
H       2.343218   -1.964897    2.657736
H      -0.985347   -2.763541    5.093875
H       2.787406   -5.926720    1.363418
