17

C      -0.069520    1.526845   -0.043826
C       1.220174    1.894259   -0.023794
C       1.956986    0.579190    0.056224
C       3.376938    0.070807    0.119320
C       3.227763   -1.260867    0.174972
C       1.716135   -1.495041    0.142704
C       1.103728   -0.354563    1.017835
C      -0.050454   -0.001465    0.025479
C       1.157042   -0.439234   -0.864406
H      -0.948551    2.154449   -0.096968
H       1.649465    2.885472   -0.056209
H       4.284230    0.657892    0.118621
H       3.992716   -2.023181    0.230918
H       1.326874   -2.512330    0.177440
H       1.089382   -0.285694    2.111491
H      -0.990109   -0.553420    0.023691
H       1.204677   -0.468793   -1.958887
