19

C       0.214944   -1.195620   -0.280902
C       0.108117   -0.002759   -0.171385
C      -0.009596    1.426599   -0.045895
C      -1.127826    2.079282   -0.855874
C      -2.513946    1.634042   -0.447624
C      -3.650776    1.703215   -1.373954
O      -3.031983    0.454780   -1.064540
C       0.340716    2.041681    1.304506
C       1.279353    2.213136    0.146071
H       0.291671   -2.249669   -0.380425
H      -1.056914    3.167179   -0.727737
H      -0.991063    1.865617   -1.921673
H      -2.726360    1.700131    0.621124
H      -4.660031    1.838354   -0.987163
H      -3.492731    2.064528   -2.389927
H      -0.245369    2.897473    1.623036
H       0.625983    1.366581    2.101928
H       2.205981    1.652379    0.150113
H       1.339009    3.185344   -0.331716
