16

O      -0.023656    0.009145    0.002666
C       0.046421    1.212162    0.006778
C       1.329386    1.969832   -0.000394
C       2.768968    1.389288   -0.019079
C       2.935975    2.944695   -0.008278
C       1.797367    3.011649   -1.074183
C       1.818613    2.994333    1.080789
C       4.171271    3.687136   -0.014419
N       5.161686    4.283890   -0.019403
H      -0.869019    1.847022    0.016625
H       3.096644    0.862700    0.878394
H       3.078833    0.877284   -0.931211
H       2.034587    2.613060   -2.062295
H       1.243930    3.951116   -1.129172
H       1.266376    3.932628    1.161773
H       2.075081    2.579763    2.057438
