19

O      -0.073503    1.510671    0.061844
C      -0.001640    0.111897    0.022050
C       0.333783   -0.718220    1.346896
C      -0.706653   -1.765840    0.832797
C      -2.012384   -2.448108    1.323169
C      -2.986909   -1.511409    0.513006
C      -2.504305   -0.128832    0.969547
C      -1.340787   -0.610441    0.079344
O      -2.326789   -1.250673   -0.789984
H       0.815196    1.868901   -0.023889
H       0.624092   -0.250871   -0.804679
H       1.363971   -1.057747    1.467171
H       0.022405   -0.159859    2.231609
H      -0.194346   -2.418129    0.120617
H      -2.066326   -3.495865    1.020997
H      -2.221552   -2.385511    2.394633
H      -4.034668   -1.792012    0.410789
H      -3.044413    0.687087    0.490442
H      -2.343546    0.060072    2.033179
