17

O      -0.069129    1.426333    0.009690
C       0.019411    0.011044    0.001818
C      -1.410153   -0.537162    0.012916
C      -1.416366   -2.041826    0.004798
N      -1.410078   -2.648002   -1.191025
C      -1.393898   -3.981226   -1.185098
C      -1.381492   -4.723200   -0.010326
C      -1.380158   -3.994339    1.172659
N      -1.396195   -2.661231    1.193632
H       0.824103    1.782303    0.002344
H       0.542330   -0.356616   -0.894733
H       0.559632   -0.365373    0.884394
H      -1.915773   -0.174900    0.911133
H      -1.932916   -0.165128   -0.871428
H      -1.392403   -4.469299   -2.157701
H      -1.373271   -5.806346   -0.016388
H      -1.367319   -4.493182    2.139698
