19

C      -0.220674    1.245538    0.142521
O      -0.438793   -0.034160   -0.414976
C       0.540948   -0.534808   -1.326623
C       0.430831    0.144434   -2.694699
C       1.979290   -0.471002   -0.775164
C       0.137469   -2.012383   -1.443183
O       0.064592   -2.620850   -2.483112
C      -0.159893   -2.811745   -0.160036
O       0.366243   -2.628400    0.904433
H       0.654312    1.269085    0.804408
H      -0.104938    2.023411   -0.624574
H      -1.109436    1.474592    0.735038
H       0.760719    1.185131   -2.635775
H       1.053529   -0.372915   -3.427598
H      -0.603028    0.121203   -3.047182
H       2.027250   -0.899973    0.226819
H       2.652205   -1.031409   -1.431267
H       2.334875    0.562883   -0.746974
H      -0.845004   -3.664146   -0.358280
