20

C      -0.040171    1.521148    0.037807
C       1.436165    1.991981   -0.002106
C       2.109223    0.933094   -0.891887
C       3.602050    0.574661   -0.757353
C       3.633716   -0.977647   -0.879026
C       2.240475   -1.380931   -0.429392
C       1.412234   -0.339911   -0.455108
C       0.010269   -0.039756    0.008498
H      -0.583144    1.907385    0.904638
H      -0.563160    1.888188   -0.852393
H       1.538153    3.018275   -0.367155
H       1.872312    1.952705    1.004246
H       1.861130    1.153282   -1.943270
H       4.242289    1.072828   -1.490651
H       3.956557    0.863754    0.239149
H       3.829102   -1.295562   -1.914066
H       4.424090   -1.429065   -0.268330
H       1.990721   -2.392583   -0.127278
H      -0.176374   -0.470816    0.998234
H      -0.756896   -0.451062   -0.657254
