18

C      -0.018990    1.526126   -0.039262
C       1.411353    2.056207    0.027274
O       2.035497    1.686631    1.255353
C       1.928019    0.370447    1.571857
C       2.679475   -0.363881    2.455458
C       2.112030   -1.673545    2.472044
C       1.050345   -1.688321    1.604742
N       0.929345   -0.422799    1.056013
C       0.002419   -0.003750    0.020279
H      -0.586578    1.931063    0.805339
H      -0.503675    1.857665   -0.962294
H       2.001805    1.673172   -0.819460
H       1.438335    3.147610    0.000611
H       3.515662    0.005147    3.026442
H       2.453709   -2.509279    3.063301
H       0.373057   -2.474390    1.312209
H      -0.992031   -0.404061    0.241821
H       0.312552   -0.413122   -0.951339
