22

C       0.040149    1.552050    0.092832
C      -0.013617    0.023721    0.009714
C      -1.440659   -0.552914   -0.066373
C      -2.201116   -0.136807   -1.331717
N      -1.417430   -2.009165    0.074711
C      -0.871031   -2.903602   -0.815321
C      -1.032705   -4.173863   -0.309874
C      -1.702397   -4.049485    0.936932
C      -1.923585   -2.707170    1.144304
H       1.069951    1.893351    0.233802
H      -0.340568    2.028340   -0.815636
H      -0.549880    1.925391    0.937770
H       0.558904   -0.322234   -0.859688
H       0.472908   -0.409537    0.890662
H      -1.998464   -0.187826    0.803867
H      -2.328593    0.948270   -1.368398
H      -1.664805   -0.443451   -2.235438
H      -3.191405   -0.599213   -1.351005
H      -0.415841   -2.565270   -1.732027
H      -0.707798   -5.087154   -0.784695
H      -1.991572   -4.848078    1.602776
H      -2.399227   -2.183724    1.959058
