16

O       0.024774   -0.061508    0.014669
C      -0.004113    1.151852   -0.001419
N      -1.106360    1.949197   -0.027736
C      -0.867951    3.381210    0.067927
C       0.641595    3.475465    0.398474
N       0.893597    3.650072    1.842833
C       1.642476    2.675614    2.195462
N       2.066813    1.790733    1.214320
C       1.223098    2.081146    0.052350
H      -2.028313    1.542103   -0.039710
H      -1.109297    3.889960   -0.873778
H      -1.456632    3.835856    0.869883
H       1.105638    4.300402   -0.149137
H       1.998509    2.539237    3.212799
H       2.159780    0.811625    1.457525
H       1.785534    2.021069   -0.882219
