18

C       0.104603    1.722811    0.190127
C       0.003479    0.208049    0.054037
C      -1.373296   -0.289240    0.393565
O      -1.976010   -1.139785   -0.215411
C       0.578665   -0.466287   -1.194475
N       2.033184   -0.170621   -1.204636
C       1.510490   -1.306941   -0.403116
C       1.076192   -0.659751    0.914833
O       2.050473    0.036002    1.622651
H       1.114651    2.059908   -0.048578
H      -0.590586    2.226778   -0.490096
H      -0.127325    2.038231    1.212253
H      -1.810817    0.179776    1.305774
H       0.044701   -0.713721   -2.101795
H       2.424173   -0.552372   -2.063845
H       1.861910   -2.317584   -0.567898
H       0.583581   -1.346323    1.606770
H       2.606059    0.456539    0.950629
