14

O      -0.035328   -0.004342    0.201812
C      -0.073256    1.194576    0.101128
C      -1.261857    2.056263   -0.070322
C      -0.913293    3.347121   -0.088678
C       0.566154    3.574620    0.078413
C       1.171408    2.145581    0.097134
C       2.091929    1.883247    1.187676
C       2.840019    1.679128    2.105588
H      -2.260244    1.646795   -0.152214
H      -1.603711    4.176857   -0.198645
H       0.976248    4.191611   -0.728605
H       0.774032    4.108054    1.012593
H       1.679377    1.950241   -0.856552
H       3.504357    1.484751    2.910698
