19

C      -0.582523    0.490355   -0.497628
O       0.475064    0.236705   -1.399496
C       1.496759   -0.576106   -0.850348
C       1.104687   -2.029536   -0.811455
N       0.936124   -2.695814    0.262604
C       0.568142   -4.071121   -0.118693
C       0.460231   -4.045590   -1.642636
C      -0.487622   -3.092626   -2.263859
N       0.933653   -2.703765   -2.068406
H      -1.078409   -0.431902   -0.162430
H      -0.229544    1.028436    0.395327
H      -1.308037    1.113580   -1.025635
H       2.362888   -0.459175   -1.509071
H       1.765828   -0.255923    0.164772
H       1.350716   -4.762850    0.214818
H      -0.356238   -4.364350    0.391600
H       0.829871   -4.885566   -2.221116
H      -0.780917   -3.215286   -3.301566
H      -1.226177   -2.609546   -1.629387
