18

C      -0.002130    1.565971    0.218453
C      -0.022357    0.054834   -0.073906
C      -1.407818   -0.522192   -0.142566
C      -1.992297   -1.036057   -1.226235
C      -3.406655   -1.512122   -1.107937
O      -3.715427   -1.989895    0.220230
C      -3.213998   -1.356746    1.300379
O      -3.652621   -1.548472    2.404381
N      -2.143274   -0.509466    1.053115
H       1.027193    1.933559    0.255359
H      -0.536833    2.118537   -0.559522
H      -0.472587    1.804536    1.177739
H       0.477412   -0.141512   -1.026513
H       0.551880   -0.473463    0.699509
H      -1.477252   -1.100637   -2.174997
H      -4.129038   -0.718675   -1.355628
H      -3.612455   -2.359931   -1.766231
H      -1.713211   -0.164280    1.896654
