20

C      -0.141890    1.671447   -0.322896
C      -0.081370    0.159879   -0.217489
C      -1.312774   -0.452354    0.445072
C      -1.427433   -0.051733    1.902661
O      -2.426731    0.379500    2.419232
C       0.599121   -0.713055   -1.202876
C       1.855326   -0.089150   -1.805954
C       2.342214    0.113454   -0.350015
N       1.132555   -0.578616    0.223236
H       0.682599    2.100753   -0.893257
H      -1.072994    1.967541   -0.817001
H      -0.139802    2.132631    0.671360
H      -2.234153   -0.173610   -0.075023
H      -1.214838   -1.545425    0.422482
H      -0.489427   -0.196851    2.481895
H       0.140781   -1.634354   -1.552905
H       2.461270   -0.813868   -2.352108
H       1.715494    0.792400   -2.438512
H       3.233654   -0.466025   -0.103555
H       2.483757    1.138622    0.003707
