18

N       0.022530   -1.134809    0.151104
C      -0.017896    0.012921    0.020196
C      -0.031600    1.465812   -0.137618
C       1.375861    2.077257   -0.023412
C       1.544317    3.592177    0.035558
C       1.476574    4.019475    1.513728
C       1.257159    2.765461    2.356256
C       2.162428    2.041710    1.322339
C       2.751792    3.460574    0.931732
H      -0.458338    1.706493   -1.118648
H      -0.706808    1.894790    0.609088
H       2.010124    1.667025   -0.815284
H       1.386746    4.310310   -0.759363
H       1.267439    5.048898    1.774953
H       1.766035    2.852259    3.319862
H       0.241896    2.387906    2.523815
H       2.729687    1.156389    1.598631
H       3.753812    3.854222    0.851117
