23

C      -0.139887    1.346802   -0.036399
C       1.230023    0.713550   -0.084119
C       2.046191    0.709427    1.201725
C       1.056596    0.221443    2.284500
C       0.056449   -0.700026    1.559050
C       0.324294   -2.242179    1.571080
C      -1.189118   -2.478384    1.818981
C      -1.321779   -0.986926    2.227346
C       0.005217   -0.146186    0.140504
H      -0.415963    1.963189    0.813643
H      -0.556407    1.690679   -0.977132
H       1.756509    0.704990   -1.032418
H       2.877639    0.002057    1.097105
H       2.482521    1.684841    1.443974
H       1.555323   -0.287814    3.114422
H       0.520511    1.071919    2.721254
H       0.765012   -2.677806    0.669713
H       0.932075   -2.539172    2.431517
H      -1.728804   -2.701756    0.894526
H      -1.463305   -3.229080    2.563846
H      -1.278936   -0.855590    3.313569
H      -2.180098   -0.427608    1.844804
H      -0.380430   -0.789993   -0.643725
