19

C       0.081124   -1.221493   -0.028907
C       0.058734   -0.020695   -0.014336
C      -0.005406    1.440220    0.018900
C      -0.801161    1.932845    1.248955
C      -1.346834    3.370931    1.112477
O      -0.639271    4.208647    0.215378
C       0.759101    4.301353    0.425208
C       1.509507    3.254156   -0.394624
O       1.337699    1.925872    0.058470
H       0.111266   -2.282772   -0.052527
H      -0.495777    1.794649   -0.901488
H      -1.642022    1.257732    1.436699
H      -0.125686    1.842363    2.104962
H      -2.365302    3.347829    0.712797
H      -1.397153    3.834482    2.110504
H       1.065107    5.299003    0.086690
H       1.013885    4.213354    1.491498
H       1.191327    3.349691   -1.445205
H       2.587075    3.444672   -0.343088
