16

C      -0.035244    1.417843   -0.031800
O      -0.040074    0.005260    0.127830
C      -1.280646   -0.588075   -0.019310
O      -1.738231   -0.504520   -1.389927
C      -1.642705   -1.768953   -1.884433
N      -1.339156   -2.724781   -1.113650
C      -1.155884   -2.123111    0.207692
C       0.164177   -2.500150    0.879403
O       0.997292   -3.214488    0.398540
H       0.981297    1.753669    0.178112
H      -0.312281    1.701262   -1.052635
H      -0.728699    1.895606    0.674868
H      -2.038619   -0.081052    0.590900
H      -1.859035   -1.854623   -2.943129
H      -1.954648   -2.468426    0.879776
H       0.276359   -2.067090    1.897529
