17

C       0.094412    1.378805   -0.017006
N       0.283166   -0.063844   -0.065735
C       0.569335   -0.683036    0.981450
O       0.758834   -0.235554    2.288463
C       1.035106   -1.593507    2.756501
C       0.832203   -2.105275    1.333921
C       0.126022   -3.324001    0.811947
C       1.590881   -3.122963    0.530705
H       0.803257    1.857918   -0.701701
H      -0.910991    1.622585   -0.378250
H       0.223170    1.813355    0.981146
H       2.047201   -1.667898    3.164592
H       0.297599   -1.908085    3.500500
H      -0.158706   -4.085317    1.530754
H      -0.579509   -3.168402    0.003353
H       1.887404   -2.829847   -0.470278
H       2.304961   -3.747198    1.057750
