18

O       0.685605   -0.113758   -0.035067
C       0.331245    1.006206   -0.294231
C       1.084892    2.254543    0.140205
C       1.125262    3.271671   -0.999123
O       0.104009    3.646084   -1.554670
N       2.349120    3.711130   -1.365380
C       3.733955    3.464615   -0.945185
C       4.192733    4.464439   -2.047010
C       2.695115    4.660291   -2.424687
H      -0.587959    1.219919   -0.876407
H       0.499579    2.716643    0.946313
H       2.061411    1.969801    0.535675
H       3.950204    3.770298    0.084401
H       4.066083    2.430134   -1.083969
H       4.687505    5.358324   -1.667470
H       4.806544    4.021410   -2.831054
H       2.404143    4.321909   -3.423907
H       2.286563    5.662587   -2.262859
