18

C       0.008206    1.491181   -0.019766
C       1.284402    0.729217    0.012396
C       2.146793    0.656209    1.270704
C       2.141656   -0.772793    1.805298
N       1.445815   -0.995056    3.086537
C       0.815068   -1.441616    1.826502
C      -0.348894   -0.599865    1.326010
N      -0.010665    0.029575    0.032126
H      -0.267028    2.035478    0.883677
H      -0.356170    1.937058   -0.942009
H       1.826017    0.592887   -0.922289
H       3.163920    0.989430    1.046240
H       1.757820    1.315439    2.051829
H       3.015521   -1.382507    1.591597
H       1.854097   -1.793918    3.565925
H       0.773339   -2.509084    1.629756
H      -1.240196   -1.215724    1.171623
H      -0.590975    0.141725    2.099293
