21

C      -0.086185    1.516359   -0.042078
C       0.034564    0.010204    0.008065
C       1.346518   -0.700139   -0.235439
C       1.406354   -1.954376   -1.074906
O       2.502984    0.093987   -0.329742
C       0.745929   -0.713470    1.170930
C       1.417702    0.087823    2.280357
C       0.136006   -1.934046    1.631210
C      -0.373912   -2.941997    2.047571
H       0.870204    2.004272    0.154725
H      -0.425193    1.836841   -1.033877
H      -0.815760    1.883702    0.687153
H      -0.841498   -0.521421   -0.353800
H       1.455974   -1.698463   -2.140950
H       2.297491   -2.538135   -0.823587
H       0.527073   -2.581467   -0.916503
H       2.559542    0.422843   -1.234035
H       1.975446    0.933223    1.880143
H       0.671463    0.454336    2.992077
H       2.118546   -0.548482    2.828401
H      -0.822227   -3.832704    2.411534
