15

C      -0.067671    1.410999   -0.154833
C      -0.260582   -0.094757   -0.132182
O      -1.161845   -0.637589    0.474484
N       0.669082   -0.803417   -0.858073
C       0.536048   -2.221997   -1.068103
C       0.122183   -2.542822   -2.497300
F       1.025850   -2.061445   -3.374177
F       0.042664   -3.866130   -2.682027
F      -1.060078   -2.004771   -2.809319
H      -0.689587    1.838759   -0.948306
H      -0.406919    1.822335    0.796425
H       0.969705    1.706186   -0.334483
H       1.350411   -0.305105   -1.407000
H       1.472371   -2.752163   -0.866025
H      -0.237600   -2.582902   -0.387992
