19

C      -0.093830    1.628187   -0.119985
C      -0.014233    0.105136   -0.099025
C      -1.395429   -0.513699    0.212374
O      -1.869713   -0.122880    1.481771
C       0.721698   -0.626270   -1.246084
C       2.152554   -0.240312   -1.294632
C       1.736313   -1.267745   -0.248177
C       0.986316   -0.607536    0.855488
O       0.945242   -0.775214    2.049984
H       0.886705    2.101231   -0.215328
H      -0.714607    1.963816   -0.958743
H      -0.558558    1.981749    0.803247
H      -2.130122   -0.162444   -0.522185
H      -1.335022   -1.610921    0.119150
H      -1.183577   -0.366481    2.119643
H       0.227915   -1.147525   -2.056690
H       2.737432   -0.666697   -2.103376
H       2.480754    0.748094   -0.990774
H       2.172384   -2.258524   -0.225775
