21

C      -2.940034   -0.588774    1.761944
C      -1.637449   -0.901393    1.022665
C      -1.087371    0.327166    0.297003
N      -0.649688   -1.336565    2.025683
C      -0.636544   -2.720295    2.444488
C       0.500072   -2.170240    1.642404
C       0.672165   -2.682678    0.236683
N       1.931199   -2.512843   -0.265792
O      -0.217554   -3.212677   -0.407005
H      -2.782081    0.194850    2.510018
H      -3.706311   -0.249753    1.058043
H      -3.323265   -1.476342    2.275156
H      -1.825804   -1.692455    0.285919
H      -0.875923    1.132253    1.008560
H      -0.160698    0.091322   -0.235823
H      -1.810445    0.693426   -0.438081
H      -0.502325   -2.904223    3.507526
H      -1.275064   -3.424323    1.913931
H       1.422043   -1.892571    2.150795
H       2.633228   -1.978764    0.214857
H       2.100130   -2.787262   -1.219675
