16

N       0.137024    1.455677   -0.078327
C       0.060882    0.004669    0.001350
C       0.632074   -0.515296    1.311342
C      -0.212722   -1.293659    1.986235
C      -1.520835   -1.405184    1.272179
N      -2.201645   -0.094280    1.124512
C      -1.364148   -0.615410    0.012426
C      -1.988152   -0.993136   -1.219580
N      -2.477842   -1.267476   -2.232262
H      -0.158295    1.773115   -0.996931
H      -0.511705    1.851659    0.597925
H       0.620558   -0.406360   -0.848414
H       1.617893   -0.207732    1.638068
H      -0.025328   -1.764842    2.942799
H      -2.124463   -2.305126    1.310471
H      -3.182537   -0.246437    0.890811
