16

C      -0.105392    1.513625   -0.005197
N       0.109678    0.073920    0.131744
C       1.354051   -0.573609   -0.109070
C       2.578290    0.256769    0.313982
C       1.961377    0.320133    1.735545
O       2.352628    0.747050    2.778833
C       0.745484   -0.505279    1.319090
C       0.012223   -1.558426    2.060754
O       0.277379   -1.913814    3.180249
H       0.739335    2.145926    0.294688
H      -0.341541    1.721072   -1.052709
H      -0.971427    1.786872    0.602455
H       1.372869   -1.454385   -0.741482
H       3.506094   -0.322136    0.341046
H       2.757707    1.193681   -0.218640
H      -0.815584   -2.007295    1.468394
