11

O      -0.067469   -0.002553    0.003310
N      -0.029281    1.208659    0.007191
O       0.975269    1.909980    0.002689
C      -1.321848    1.953358    0.017454
C      -1.319369    3.347739    0.020721
N      -2.481091    3.986207    0.029926
C      -3.560843    3.196222    0.035269
N      -3.583767    1.860501    0.032397
N      -2.416632    1.224953    0.023075
H      -0.397567    3.917343    0.015961
H      -4.533154    3.678920    0.042928
