15

C      -0.188460    1.442617   -0.190255
O       1.085808    0.825925    0.148291
C      -0.021663    0.009855   -0.041115
C      -0.386991   -1.052977    1.035492
C      -1.280950   -2.244358    0.641178
C      -2.147469   -2.257070   -0.623195
N      -1.408511   -1.289679   -1.474860
C      -0.253620   -1.196470   -0.939236
N       0.093864   -2.164159    0.154000
H      -0.643641    2.024721    0.608028
H      -0.239622    1.873424   -1.187274
H      -0.003406   -0.962174    2.050027
H      -1.478735   -2.959026    1.437796
H      -2.199668   -3.277294   -1.028086
H      -3.169140   -1.884306   -0.504317
