19

C       0.060913    1.663211    0.181806
C       0.025240    0.166029   -0.039172
C       0.527300   -0.560517   -1.238312
C       1.456760    0.132419   -2.221584
O       0.763199    1.176866   -2.897120
C       2.662970    0.615345   -1.368656
C       2.514721   -0.096944   -0.002816
N       1.185978   -0.739702    0.071306
H       0.755998    2.190898   -0.468773
H      -0.934304    2.073800   -0.016782
H       0.306326    1.892077    1.225580
H      -0.845692   -0.290324    0.431057
H      -0.036650   -1.408995   -1.617391
H       1.793131   -0.615133   -2.954939
H       1.335538    1.509050   -3.595860
H       3.616884    0.373249   -1.846273
H       2.618078    1.703298   -1.274876
H       3.258005   -0.893350    0.104734
H       2.652548    0.584997    0.842657
