16

C      -0.147074    1.481271    0.082275
C       0.036486    0.004506    0.056754
C       1.190242   -0.805674   -0.418835
C       0.673527   -0.999128    1.013315
N       1.525844   -0.811635    2.127342
C      -0.648534   -1.700448    0.924524
N      -1.189928   -2.650248    1.538586
O      -1.161792   -0.832908   -0.038713
H       0.797232    1.964817    0.347668
H      -0.461702    1.858185   -0.896869
H      -0.904402    1.764883    0.819211
H       1.047500   -1.575559   -1.170685
H       2.145184   -0.289245   -0.446033
H       0.986539   -0.745176    2.984935
H       2.161522   -1.596329    2.233971
H      -2.153895   -2.789840    1.230780
