15

C       0.070772    1.474118   -0.182833
C       0.018216   -0.045634    0.031409
O       0.751192   -0.438520    1.190123
C      -1.364028   -0.535007    0.066120
C      -2.508787   -0.909276    0.123286
C      -3.872076   -1.433622    0.197036
O      -4.017904   -2.722573   -0.381201
H       1.113397    1.801725   -0.198649
H      -0.407921    1.752039   -1.126155
H      -0.449882    1.993189    0.628521
H       0.542464   -0.534830   -0.798532
H       0.257111   -0.133721    1.959434
H      -4.205233   -1.424307    1.247629
H      -4.557338   -0.780438   -0.354777
H      -3.334099   -3.286225   -0.004339
