15

N       0.133290   -1.081392   -0.211687
C       0.034004    0.062995   -0.092573
C      -0.082930    1.487192    0.057031
N      -1.157187    2.140219   -0.127053
C      -0.809320    3.545942    0.134881
C       0.680008    3.514828    0.499216
C       1.713324    4.510217    0.089714
C       1.350694    4.326522    1.556371
O       1.054268    2.124965    0.417702
H      -1.016176    4.145730   -0.758495
H      -1.437450    3.932579    0.945200
H       2.672710    4.125932   -0.237338
H       1.377905    5.404803   -0.425159
H       0.765448    5.094556    2.051846
H       2.073064    3.822181    2.187941
