19

O      -0.118937    1.442196   -0.068733
C       0.016047    0.032127   -0.086930
C      -1.384252   -0.553921    0.132316
C      -1.410148   -2.050771    0.114695
C      -1.646059   -2.859895    1.159979
C      -1.597348   -4.281334    0.764159
O      -1.754987   -5.248321    1.473798
C      -1.305507   -4.312409   -0.746711
C      -1.165369   -2.836696   -1.161161
H       0.754314    1.831399   -0.172407
H       0.426926   -0.317577   -1.046704
H       0.689213   -0.321940    0.709135
H      -1.767614   -0.175428    1.084488
H      -2.033590   -0.160142   -0.660607
H      -1.854854   -2.549131    2.176413
H      -0.402946   -4.901671   -0.931567
H      -2.125581   -4.823086   -1.259867
H      -1.886484   -2.541264   -1.933537
H      -0.175540   -2.612279   -1.576586
