21

O      -0.008099    1.339628    0.326428
C       0.012186   -0.036075    0.020154
C       0.934147   -0.534287   -1.057604
C       1.221947   -0.842609    0.406642
C      -1.407185   -0.572808    0.174410
C      -2.387170    0.015955   -0.885402
C      -2.682923   -1.131788   -1.886836
C      -2.219155   -2.362741   -1.146408
C      -1.542508   -2.064046   -0.038426
H       0.817788    1.735072    0.032374
H       0.600552   -1.349506   -1.690191
H       1.571732    0.188333   -1.559356
H       2.037510   -0.307858    0.883351
H       1.102626   -1.864820    0.747776
H      -1.719857   -0.286784    1.187092
H      -3.315017    0.318266   -0.391843
H      -1.972525    0.906468   -1.360792
H      -3.743699   -1.182817   -2.158600
H      -2.134687   -1.015499   -2.832043
H      -2.416307   -3.368896   -1.501793
H      -1.115726   -2.790962    0.643966
