18

C      -0.041955    1.605351   -0.062821
C       0.005647    0.068934   -0.022082
C       0.690220   -0.503862   -1.240686
C       1.924187   -0.999723   -1.196619
C       2.736836   -1.007524    0.066502
O       2.149189   -0.241747    1.109003
C       0.755534   -0.478978    1.215860
C       0.291512    0.123258    2.473187
N      -0.117250    0.581920    3.450969
H       0.970229    2.014827   -0.007390
H      -0.497457    1.947651   -0.996582
H      -0.626606    2.005621    0.770161
H      -1.022341   -0.314568    0.021145
H       0.132969   -0.486004   -2.173324
H       2.394297   -1.427276   -2.077907
H       2.907376   -2.045386    0.405338
H       3.723844   -0.563111   -0.102983
H       0.562871   -1.562450    1.285216
