18

O      -0.554001    0.294477    0.188726
C       0.021906    1.262687   -0.227815
C       1.426329    1.673771    0.162134
C       1.470756    2.753903    1.277245
C       2.034885    1.598938    2.144601
O       2.101921    0.721321    0.991108
C       3.376820    1.797521    2.797396
C       4.349325    0.682019    2.850831
N       4.594038    1.849374    1.977709
H      -0.459528    1.976782   -0.938498
H       1.991050    1.911963   -0.750262
H       2.183475    3.557262    1.087972
H       0.512738    3.173197    1.587830
H       1.310849    1.216884    2.875888
H       3.356536    2.516504    3.615470
H       5.022411    0.588456    3.697754
H       4.064069   -0.252476    2.376834
H       4.343922    1.573810    1.028765
