19

C       0.044485    1.353401    0.144779
O      -0.002130   -0.038792   -0.087314
C      -1.284298   -0.586321   -0.104985
C      -2.118510   -0.584557    1.247260
C      -2.428083   -2.054295    0.989755
C      -2.760962   -2.335743   -0.503249
C      -3.124277   -1.188649   -1.381712
C      -2.246175   -0.194974   -1.213224
C      -1.340047   -2.145952   -0.048938
H       1.099286    1.630399    0.207476
H      -0.420061    1.926589   -0.669985
H      -0.450579    1.627702    1.087622
H      -1.428825   -0.497898    2.091515
H      -2.940764    0.131021    1.349580
H      -2.712731   -2.779785    1.742496
H      -3.127341   -3.335868   -0.703789
H      -4.006294   -1.168909   -2.010046
H      -2.300478    0.795197   -1.647429
H      -0.512990   -2.832089   -0.180803
