19

C      -0.169841    1.469798    0.302717
C      -0.001719   -0.019817    0.032879
C       1.359197   -0.499072   -0.446515
C       0.898477   -0.806098    0.955734
C      -1.205629   -0.707992   -0.490930
C      -2.096100   -1.597011    0.059026
N      -3.091752   -1.927285   -0.833010
C      -2.817559   -1.244288   -1.919078
N      -1.692409   -0.488463   -1.768793
H       0.758753    1.905535    0.684803
H      -0.441637    2.015395   -0.608407
H      -0.959176    1.645239    1.040893
H       1.391556   -1.317485   -1.156870
H       2.136148    0.246258   -0.580716
H       1.362519   -0.271084    1.777285
H       0.626768   -1.829837    1.183558
H      -2.073277   -2.014071    1.054549
H      -3.386445   -1.254442   -2.837188
H      -1.264958    0.097626   -2.466406
