23

C       0.065742    1.585227    0.091995
C       0.005083    0.055131    0.050112
C       0.622694   -0.520110   -1.230309
C       0.644682   -2.059291   -1.298613
C      -0.763362   -2.649832   -1.471481
C       1.603247   -2.504546   -2.440569
O       2.871019   -1.920303   -2.303189
C       1.753607   -4.012093   -2.510273
O       2.831054   -4.544998   -2.379606
H       1.099991    1.941032    0.030713
H      -0.484247    2.026290   -0.746867
H      -0.368669    1.976909    1.017072
H       0.535548   -0.355338    0.919675
H      -1.039273   -0.264137    0.151968
H       0.081460   -0.132411   -2.106323
H       1.652346   -0.160939   -1.317545
H       1.079777   -2.433841   -0.361413
H      -0.781341   -3.738462   -1.366935
H      -1.446890   -2.247502   -0.719783
H      -1.175531   -2.399653   -2.456543
H       1.143155   -2.192432   -3.397804
H       3.492979   -2.662612   -2.236977
H       0.839048   -4.606296   -2.695011
