18

O       0.530644    0.889155   -0.830466
C       0.150113   -0.195147   -0.038420
C       0.203305   -0.092779    1.513152
C      -1.211042   -0.725864    1.618934
C      -2.354017    0.296451    1.801031
C      -2.363498    0.567942    0.268697
C      -1.361153   -0.609334    0.041619
C      -1.803044   -1.689855   -0.803629
N      -2.147286   -2.569588   -1.472726
H       0.152748    1.694488   -0.461698
H       0.732628   -1.046663   -0.398487
H       1.016964   -0.650123    1.980181
H       0.243539    0.938343    1.881415
H      -1.280452   -1.683234    2.132267
H      -3.283261   -0.168794    2.137778
H      -2.136042    1.145553    2.454647
H      -3.327934    0.427978   -0.219587
H      -1.970061    1.538286   -0.047510
