18

O      -0.254775    1.525022    0.248236
N       0.067712    0.179651    0.024265
C      -0.954591   -0.587437   -0.002448
C      -2.389643   -0.128995    0.110171
O      -2.990860   -0.118061   -1.176826
C      -3.578763   -1.332224   -1.582543
C      -2.688889   -2.540347   -1.721290
C      -1.511061   -2.826126   -1.167851
C      -0.662586   -2.052118   -0.189253
H       0.611413    1.944118    0.220512
H      -2.947983   -0.783173    0.797458
H      -2.430260    0.892963    0.485142
H      -4.414169   -1.594087   -0.904280
H      -4.031836   -1.115328   -2.556874
H      -3.133391   -3.306170   -2.356320
H      -1.087927   -3.800939   -1.404470
H       0.395339   -2.154350   -0.451660
H      -0.768089   -2.551707    0.789628
