18

C      -1.878936    0.641462   -0.679831
N      -0.821343   -0.352801   -0.504238
C       0.369023   -0.337995   -1.303369
C       0.664643    0.703276   -2.378273
C      -0.056709    0.416549   -3.614435
C      -0.656631    0.161259   -4.624052
C       0.442048   -0.018264    0.183125
C       0.787653    1.344742    0.658763
O       0.448119    2.395557    0.157536
H      -1.532414    1.675335   -0.766339
H      -2.438983    0.371194   -1.578985
H      -2.551844    0.573489    0.179852
H       0.719840   -1.334727   -1.570772
H       0.426818    1.706948   -2.017316
H       1.744465    0.693154   -2.575156
H      -1.184429   -0.051751   -5.520427
H       0.795807   -0.802547    0.850015
H       1.415512    1.339579    1.577231
