17

C      -0.025458    1.534500   -0.050085
C       1.509478    1.554456    0.039402
O       2.032795    0.757871   -1.040003
C       1.567807    0.077782    0.125473
C       2.309375   -0.926547    0.878014
C       1.588234   -1.806859    1.577855
C       0.078243   -1.749698    1.639050
O      -0.486591   -0.504645    1.248921
C       0.040702   -0.022323    0.030446
H      -0.512032    1.938718    0.839868
H      -0.456868    1.970671   -0.953462
H       2.167980    2.311202    0.449574
H       3.393708   -0.940853    0.847315
H       2.062462   -2.606155    2.140105
H      -0.343656   -2.572046    1.033157
H      -0.258343   -1.915184    2.668528
H      -0.344198   -0.583025   -0.832377
