21

C       0.040842    1.383373    0.096223
O       0.010872   -0.021133    0.032772
C       0.655762   -0.529979   -1.115320
C       0.588650   -2.050679   -1.065856
C       1.270070   -2.704450   -2.281640
O       2.636693   -2.300680   -2.403291
C       1.136838   -4.162869   -2.246340
C       1.056003   -5.362799   -2.177178
C       0.951227   -6.813355   -2.114710
H       1.072105    1.770768    0.121772
H      -0.473645    1.844119   -0.762644
H      -0.471155    1.682084    1.014460
H       0.163234   -0.155146   -2.030791
H       1.704262   -0.197977   -1.155839
H       1.067613   -2.407566   -0.146539
H      -0.458059   -2.370292   -1.024773
H       0.794989   -2.322664   -3.195144
H       3.137256   -2.792196   -1.742460
H       1.857541   -7.292413   -2.501052
H       0.802495   -7.161176   -1.086650
H       0.106993   -7.173458   -2.712854
