16

O      -0.021025    0.000303   -0.404790
C       0.093370    1.028241    0.217126
C       1.223203    1.970875    0.062706
C       2.048367    2.012594   -1.172170
N       2.702452    1.469173    0.008961
C       3.062683    2.598998    0.964015
C       3.383349    4.000962    0.422937
O       1.972071    4.358095    0.421136
C       1.620030    3.095616    1.030224
H      -0.672693    1.346567    0.959946
H       1.817314    1.239284   -1.897823
H       2.318141    2.981425   -1.578782
H       3.627790    2.211335    1.808205
H       3.946448    4.620424    1.131036
H       3.842837    4.077532   -0.568441
H       1.025655    3.198430    1.940977
