14

O      -0.003025    1.339721    0.042557
C      -0.275108   -0.015446    0.264950
C      -1.285699   -0.510500   -0.758822
O      -1.726351    0.177694   -1.639586
C      -1.706874   -1.981423   -0.609690
C      -2.839810   -2.169231    0.386937
F      -3.903047   -1.422667    0.076619
F      -3.232196   -3.449773    0.424406
F      -2.462948   -1.832952    1.636831
H       0.576778    1.648128    0.744844
H       0.621623   -0.655589    0.167258
H      -0.691652   -0.219659    1.264490
H      -2.059773   -2.332038   -1.580967
H      -0.875196   -2.609211   -0.277177
