9

C      -0.008605    1.502038   -0.006812
C       0.010993   -0.017649   -0.013770
O       0.680888   -0.440418   -1.193132
H       1.011533    1.896620   -0.019202
H      -0.531599    1.880761   -0.889747
H      -0.516746    1.876118    0.887107
H       0.523771   -0.389123    0.888241
H      -1.020275   -0.405073    0.016907
H       0.695296   -1.401796   -1.201485
