19

O       0.001157    0.820507    0.818717
C      -0.185067    0.217357   -0.448031
C      -1.469899   -0.618662   -0.533825
O      -1.640476   -1.143782   -1.842612
C      -1.512128   -1.717107    0.545145
C      -2.884435   -2.352117    0.607304
O      -3.846232   -1.768688    1.064515
C      -3.062848   -3.741114    0.024022
O      -4.378768   -4.185812    0.139474
H      -0.663193    1.509709    0.922604
H      -0.195705    0.953645   -1.264250
H       0.685952   -0.433412   -0.602841
H      -2.333028    0.040173   -0.377784
H      -0.864829   -1.675307   -2.056773
H      -0.737962   -2.466155    0.334953
H      -1.289276   -1.253709    1.510623
H      -2.735209   -3.682040   -1.029377
H      -2.361938   -4.426523    0.529830
H      -4.858221   -3.440947    0.537527
