18

C      -0.265197    1.497674   -0.055712
C       0.102914    0.011947    0.070641
C       0.829177   -0.512323   -1.130439
N       0.164287   -0.830225   -2.417548
C       0.962454   -1.867840   -1.710372
C       2.477226   -1.611933   -1.991756
N       2.609271   -0.430896   -2.879450
C       2.352372   -0.249976   -1.430478
H       0.629113    2.113537   -0.195914
H      -0.919268    1.667946   -0.916170
H      -0.780412    1.852546    0.841935
H       0.727345   -0.137901    0.961785
H      -0.803826   -0.586774    0.228744
H      -0.812089   -1.026992   -2.189761
H       0.525263   -2.809103   -1.401628
H       3.268824   -2.342351   -1.888596
H       3.611834   -0.286283   -3.009401
H       3.025655    0.309592   -0.793244
