17

N      -0.117142    1.277337    0.342838
C       0.040746   -0.020876   -0.037100
O       1.097459   -0.518423   -0.378523
C      -1.241961   -0.811988   -0.045404
C      -2.415272   -0.375605   -0.871988
N      -2.466299   -0.241673    0.583001
C      -3.132753   -1.366581    1.284940
C      -2.284792   -2.589574    1.001725
C      -1.214443   -2.266115    0.277887
H       0.709975    1.838748    0.461675
H      -0.972593    1.538108    0.809179
H      -2.376002    0.568161   -1.408947
H      -2.994630   -1.163994   -1.347625
H      -3.179719   -1.140919    2.358239
H      -4.167944   -1.466793    0.935766
H      -2.547266   -3.582041    1.347846
H      -0.413243   -2.913365   -0.049354
