16

C       0.261347    1.219773   -1.743195
O       0.122132    0.300517   -0.677133
C       1.142817   -0.668778   -0.622461
C       1.050341   -1.366757    0.734880
C       1.027326   -1.720151   -1.739605
O       2.003111   -2.249808   -2.223708
C      -0.321869   -2.078661   -2.145853
C      -1.428672   -2.397053   -2.496454
H       1.220085    1.756505   -1.686935
H       0.191610    0.731543   -2.725625
H      -0.555292    1.939149   -1.652199
H       2.135352   -0.207852   -0.741833
H       1.154090   -0.625511    1.531021
H       0.079139   -1.857977    0.843387
H       1.841514   -2.114062    0.834206
H      -2.405217   -2.680583   -2.806693
