14

C       0.037215    1.376762    0.069467
O       0.114425   -0.055963    0.007008
C       0.627355   -0.578692   -1.086563
N       1.047020    0.143926   -2.068083
C       1.557734   -0.551434   -3.143673
N       1.674023   -1.821006   -3.304778
O       1.214829   -2.605350   -2.231294
C       0.680159   -2.058225   -1.091522
N       0.268229   -2.765999   -0.128162
H       1.034425    1.815896   -0.009314
H      -0.584967    1.760580   -0.742352
H      -0.408896    1.595985    1.038445
H       1.916177    0.040096   -3.980162
H       0.395473   -3.759322   -0.334258
