16

C       0.052987    1.485641    0.034490
N      -0.140954    0.051356   -0.078809
C       0.526986   -0.652767   -1.054373
C       0.667762   -2.045223   -1.175317
N       1.372542   -2.239214   -2.336829
N       1.688237   -1.115215   -2.957141
C       1.186862   -0.136267   -2.195813
C       0.236036   -3.159931   -0.372860
O       0.461696   -4.324788   -0.651726
H       1.102072    1.771871    0.204451
H      -0.292648    1.983490   -0.877396
H      -0.549526    1.859416    0.864777
H      -0.252895   -0.429550    0.799394
H       1.641256   -3.136635   -2.707032
H       1.316115    0.892787   -2.491213
H      -0.334517   -2.889758    0.542616
