16

N       0.508929    1.034210   -0.445015
C      -0.085070   -0.226931   -0.142328
C      -0.144215   -0.636574    1.363548
C      -1.511301   -1.335019    1.097383
C      -1.657342   -0.505955   -0.215633
C      -2.425399    0.714914   -0.058059
N      -2.976722    1.723241    0.076966
C       0.948095   -1.427941    1.899351
N       1.809753   -2.084895    2.302580
H       0.637604    1.166318   -1.441600
H      -0.044976    1.810400   -0.094747
H       0.416239   -1.009868   -0.715901
H      -0.284460    0.258306    1.977568
H      -1.388379   -2.395653    0.875137
H      -2.281747   -1.206542    1.855997
H      -2.003988   -1.049554   -1.096584
