21

C      -0.037636    1.557836    0.059363
C       0.053008    0.028682   -0.014138
C       0.756632   -0.466793   -1.252288
C       2.198752   -0.173853   -1.743114
C       1.620429   -1.115039   -2.821996
C       0.939000   -1.966712   -1.701004
C      -0.405404   -2.420964   -2.253222
O      -0.820109   -1.236697   -2.958761
C       0.267727   -0.357881   -2.733539
H       0.957529    2.014586    0.064316
H      -0.585338    1.962035   -0.798316
H      -0.556634    1.878162    0.967700
H       0.572093   -0.354486    0.874510
H      -0.957596   -0.399268    0.010677
H       2.421491    0.852364   -2.051234
H       3.008930   -0.579212   -1.130742
H       2.106268   -1.492313   -3.722235
H       1.530097   -2.652382   -1.092407
H      -0.329364   -3.266302   -2.948809
H      -1.137697   -2.672090   -1.475513
H       0.102934    0.599936   -3.226513
