20

C       0.113684    1.452894    0.010839
C      -0.025780   -0.088306    0.046499
C       0.591903   -0.621693    1.358248
C      -1.452517   -0.441071    0.020789
C      -2.620884   -0.724667   -0.003042
C       0.628793   -0.664966   -1.220488
C       2.106139   -0.942528   -1.340097
C       1.114264   -2.082497   -1.347445
H       1.172144    1.731485    0.021697
H      -0.341836    1.864084   -0.894296
H      -0.377724    1.908409    0.875139
H       0.070941   -0.184605    2.214093
H       0.501710   -1.707737    1.435889
H       1.648509   -0.348197    1.431868
H      -3.651749   -0.978136   -0.025202
H       0.166288   -0.263290   -2.118249
H       2.600543   -0.674304   -2.267406
H       2.732690   -0.832712   -0.462134
H       1.083702   -2.723381   -0.473710
H       0.924736   -2.603131   -2.279536
