17

O      -0.135139   -0.134203   -0.026171
C      -0.107550    1.076259   -0.000080
C       1.128416    1.797925    0.266264
C       2.141805    2.415847    0.467973
C      -1.337012    1.963256   -0.222345
C      -2.611265    1.163193   -0.587872
C      -3.482395    1.133914    0.696990
C      -2.857411    2.190435    1.573030
C      -1.709977    2.652960    1.081772
H       3.046921    2.942915    0.649913
H      -1.058599    2.695659   -0.991716
H      -3.142347    1.681843   -1.389920
H      -2.356563    0.163296   -0.941264
H      -4.538151    1.338293    0.485164
H      -3.453920    0.154382    1.191920
H      -3.302814    2.513148    2.508036
H      -1.069889    3.394374    1.544565
