20

C      -0.119761    1.637725   -0.037119
C      -0.120902    0.105998   -0.022830
C       0.729394   -0.517389   -1.136849
C       2.245751   -0.265375   -1.044119
C       2.921166   -1.590348   -1.435419
O       4.088402   -1.756068   -1.643370
N       1.944781   -2.646719   -1.525525
C       1.303021   -2.877364   -0.198108
C       0.631582   -2.043196   -1.215552
H       0.888186    2.040402    0.108282
H      -0.495784    2.023667   -0.991196
H      -0.754515    2.039891    0.758018
H       0.238495   -0.256833    0.948852
H      -1.151782   -0.257834   -0.120685
H       0.369581   -0.128255   -2.097888
H       2.607242    0.537813   -1.688659
H       2.568948   -0.015799   -0.026098
H       0.990351   -3.903001   -0.031895
H       1.750915   -2.396079    0.667827
H      -0.205142   -2.466694   -1.763521
