21

C       0.088790    1.533421    0.224498
C      -0.016806    0.033774   -0.102949
C      -1.421150   -0.456353   -0.194279
C      -2.174391   -0.969610   -1.203991
C      -3.481261   -1.244934   -0.663565
C      -4.661952   -1.832598   -1.378728
C      -4.445474   -3.291268   -1.815130
C      -3.408380   -0.871688    0.640931
O      -2.169476   -0.391485    0.946075
H       1.136129    1.840140    0.304144
H      -0.387504    2.137394   -0.553797
H      -0.405950    1.757139    1.173539
H       0.475392   -0.179345   -1.057261
H       0.521731   -0.540561    0.662381
H      -1.844582   -1.132684   -2.219232
H      -5.542228   -1.773719   -0.728432
H      -4.895187   -1.226070   -2.263523
H      -3.585016   -3.379492   -2.485970
H      -4.256673   -3.933002   -0.949018
H      -5.324053   -3.676681   -2.342231
H      -4.120973   -0.880284    1.449891
