15

C      -0.068012    1.409248    0.053154
C      -0.343159   -0.076307    0.026722
O      -0.744528   -0.707541    0.974333
C      -0.058354   -0.756670   -1.281394
O      -0.722981   -2.006843   -1.569304
C       0.681451   -2.038351   -1.556056
C       1.146642   -1.586675   -2.947985
C       0.417674   -0.243774   -2.644263
O       0.398507    0.826756   -3.173304
H       1.000139    1.594018   -0.114349
H      -0.595994    1.910097   -0.764720
H      -0.364244    1.820877    1.018184
H       1.179280   -2.657914   -0.819970
H       2.222722   -1.420517   -3.053674
H       0.774723   -2.189364   -3.778370
