23

C      -0.121710    1.540976   -0.011264
C      -0.010523    0.010754    0.028624
C       0.901228   -0.432187    1.183123
C      -1.410929   -0.622151    0.103167
C      -1.428439   -2.138460   -0.040710
O      -2.779533   -2.559370   -0.090385
C      -2.904215   -3.960886   -0.209257
C      -4.311446   -4.335603   -0.267789
C      -5.462834   -4.672501   -0.318830
H       0.864613    2.006971   -0.106152
H      -0.735021    1.875323   -0.854384
H      -0.582264    1.923518    0.907432
H       0.454823   -0.315503   -0.913261
H       0.461606   -0.163132    2.151301
H       1.074564   -1.512626    1.185431
H       1.878978    0.056365    1.116936
H      -1.892048   -0.351207    1.051811
H      -2.040562   -0.208636   -0.693421
H      -0.900713   -2.443451   -0.962041
H      -0.913577   -2.627878    0.802170
H      -2.388554   -4.320548   -1.117030
H      -2.421721   -4.467781    0.644851
H      -6.483266   -4.962903   -0.363602
