18

N       0.047897    1.139563   -0.481650
C       0.073244   -0.017381    0.246940
O       0.990210   -0.303869    0.990561
C      -1.184658   -0.855647    0.130564
C      -1.682742   -1.489708   -1.152724
C      -0.692064   -1.621733   -2.296039
O       0.516763   -2.077441   -1.705794
C       0.194315   -2.896415   -0.580447
C      -1.113668   -2.345858   -0.037918
H       0.882520    1.703715   -0.496884
H      -0.644749    1.289266   -1.194073
H      -1.970112   -0.502780    0.794389
H      -2.742533   -1.472496   -1.380297
H      -1.081002   -2.340645   -3.036318
H      -0.460367   -0.687769   -2.820123
H       0.062320   -3.947725   -0.880655
H       1.028891   -2.818059    0.119399
H      -1.738736   -2.986762    0.571933
