19

C      -0.578328    1.307875    0.072704
C       0.144783   -0.022262    0.036937
O       1.326704   -0.021582   -0.804825
C       2.142919   -0.622562    0.230910
C       2.826575   -1.888111   -0.213183
C       2.943576    0.468539    0.994488
C       1.751206    0.596543    1.963731
O       1.540955    1.267361    2.932481
C       0.961815   -0.515949    1.259852
H       0.070010    2.110696    0.433424
H      -0.925494    1.568743   -0.931950
H      -1.450951    1.247154    0.731427
H      -0.541579   -0.811498   -0.300252
H       3.536330   -1.669511   -1.018576
H       3.379196   -2.346939    0.612826
H       2.098797   -2.611419   -0.592198
H       3.835269    0.092432    1.509285
H       3.207363    1.357972    0.417445
H       0.548421   -1.320028    1.868157
