18

C      -0.073382    1.457122    0.070114
C       0.065297   -0.029460   -0.071082
C      -0.632157   -0.895774   -1.119979
C      -0.389480   -2.037172   -0.117806
N      -0.244894   -0.982677    1.036226
C       1.209857   -0.805112    0.536997
C       2.328332   -0.244894    1.357245
C       1.127894   -2.178604   -0.049194
O       1.905582   -3.085137   -0.154773
H       0.495297    1.974623   -0.710081
H      -1.124513    1.748201   -0.024814
H       0.284660    1.803885    1.042395
H      -1.691180   -0.627483   -1.180285
H      -0.213195   -0.987876   -2.126818
H      -1.053866   -2.889547   -0.003933
H       1.973531    0.526136    2.044978
H       2.795575   -1.040728    1.944320
H       3.097015    0.196157    0.714095
