19

C      -0.126813    1.484300    0.043642
C       0.001338   -0.009752    0.099842
C       1.323973   -0.711141   -0.177365
C       0.686473   -0.765113    1.201677
O       1.252987   -0.060960    2.264996
C      -0.166843   -1.977063    1.462627
C      -1.566454   -1.668890    1.966467
C      -1.307805   -1.847118    0.494204
O      -1.169323   -0.695228   -0.310636
H       0.761044    1.954892    0.471994
H      -0.242575    1.825834   -0.989934
H      -1.001824    1.814468    0.611744
H       1.326090   -1.605434   -0.791404
H       2.189987   -0.065909   -0.283376
H       2.057439   -0.519108    2.531833
H       0.299337   -2.932497    1.684233
H      -2.099579   -2.462659    2.478559
H      -1.763371   -0.669472    2.338453
H      -1.730230   -2.685629   -0.046682
