13

N      -0.065635    1.329627    0.008425
C       0.059322   -0.016288    0.003324
O       1.110684   -0.629361   -0.007187
C      -1.263090   -0.750506    0.011212
C      -1.286654   -2.147990    0.007085
N      -2.431780   -2.824423    0.013810
N      -3.573863   -2.137748    0.024697
C      -3.508351   -0.807442    0.028274
N      -2.398529   -0.061934    0.022058
H       0.762828    1.899846    0.002980
H      -0.981935    1.747370    0.016373
H      -0.366234   -2.719382   -0.001734
H      -4.461361   -0.286863    0.037269
