18

C      -0.256375    1.372855    0.212313
N       0.442864    0.133219   -0.130094
C       0.862410   -0.676292    0.911284
C       0.788142   -2.023998    1.111723
O       0.090638   -2.898338    0.306766
C       1.475839   -2.307764    2.345588
C       1.645489   -3.651261    2.979012
C       1.905341   -1.102063    2.796770
O       1.539654   -0.096449    1.932627
H       0.396036    1.993391    0.829794
H      -0.473411    1.919298   -0.708628
H      -1.197336    1.210673    0.760001
H      -0.068610   -0.428946   -0.798639
H       0.705719   -3.539431   -0.065546
H       2.256254   -4.320650    2.360092
H       2.133585   -3.569852    3.953767
H       0.678401   -4.145781    3.123685
H       2.443886   -0.786690    3.674173
