10

F       0.092542    0.045416    0.001961
C      -0.042988    1.343221    0.010906
C      -1.213146    2.003306    0.030650
F      -2.360203    1.344614    0.042884
C      -1.227348    3.470215    0.038865
O      -2.237618    4.127021    0.056378
N       0.067170    4.065208    0.024228
C       1.101205    3.337418    0.005930
O       1.145071    1.969790   -0.002089
H       2.110580    3.734682   -0.005741
