25

C       0.008508    1.606853   -0.065896
C       0.035626    0.085133    0.106965
C      -1.362001   -0.542336    0.011070
C      -1.384739   -2.082803    0.030630
C      -0.731218   -2.646397    1.300853
C      -2.835813   -2.635863   -0.126509
C      -3.582300   -2.098014   -1.367137
C      -2.839056   -4.099705   -0.165718
C      -2.848424   -5.300313   -0.239168
H       1.012900    2.035214    0.009158
H      -0.402179    1.888528   -1.042002
H      -0.613210    2.081285    0.701779
H       0.684138   -0.358827   -0.660426
H       0.494465   -0.158005    1.071616
H      -1.985790   -0.162270    0.834183
H      -1.826667   -0.182513   -0.913652
H      -0.813829   -2.442047   -0.837700
H      -0.800502   -3.736344    1.325395
H       0.326152   -2.376907    1.361052
H      -1.226241   -2.256525    2.199264
H      -3.399386   -2.324705    0.766162
H      -3.004469   -2.286450   -2.277680
H      -4.547126   -2.600170   -1.472870
H      -3.766989   -1.024436   -1.288580
H      -2.860063   -6.360815   -0.289137
