19

C      -0.131928    1.513082    0.048194
C       1.255349    2.249909   -0.018219
C       2.175625    1.624057   -1.102731
C       3.215489    0.475375   -0.868870
C       2.790313   -0.250251   -2.124620
C       2.442010   -0.896259   -0.813801
C       1.046035   -0.355064   -0.819207
C       0.207179    0.040169    0.138129
C       1.454722    0.559316   -1.981679
H      -0.715794    1.860321    0.904487
H      -0.709626    1.758283   -0.850780
H       1.099489    3.313098   -0.236389
H       1.728823    2.199150    0.968487
H       2.660304    2.399475   -1.704457
H       4.214276    0.555337   -0.454721
H       3.353841   -0.591793   -2.980540
H       2.890754   -1.746690   -0.316598
H       0.121058   -0.481139    1.087455
H       0.766332    0.829977   -2.779210
