16

O       0.046661   -0.032065   -0.018176
C      -0.040604    1.159001    0.031137
C      -1.305642    2.009355    0.170646
C      -0.787680    3.411817    0.445074
C      -0.363006    3.753552    1.907936
C       1.103493    3.958729    1.426606
C       0.721703    3.358569    0.056796
O       1.054648    1.970420   -0.048755
H      -1.863784    1.937690   -0.769240
H      -1.939597    1.594308    0.957671
H      -1.360819    4.200979   -0.041549
H      -0.848959    4.624635    2.350928
H      -0.483933    2.909656    2.592489
H       1.383833    5.012039    1.346855
H       1.888125    3.422499    1.963265
H       1.074996    3.862160   -0.845690
