21

C      -0.063736    1.381337    0.020125
O      -0.200281   -0.006465   -0.179566
C       0.649211   -0.564035   -1.175411
C       2.096335   -0.690869   -0.690267
C       0.053933   -1.916183   -1.559481
C      -0.267687   -2.917589   -0.401129
C      -1.643457   -3.129960   -1.049091
O      -2.496498   -3.960608   -0.928740
C      -1.444769   -1.937278   -1.995044
H       0.910518    1.654160    0.449946
H      -0.195263    1.940731   -0.919208
H      -0.846089    1.682697    0.721180
H       0.626486    0.089005   -2.065684
H       2.723513   -1.129286   -1.473007
H       2.522555    0.282675   -0.432897
H       2.148002   -1.332410    0.194881
H       0.691916   -2.380180   -2.316378
H       0.357201   -3.805651   -0.281613
H      -0.363054   -2.408177    0.562960
H      -1.981972   -1.055885   -1.630545
H      -1.685340   -2.101604   -3.048104
