16

C       0.330899    1.579954    0.070137
N       0.118733    0.138978    0.106381
C       0.649837   -0.515307    1.290138
C       0.078170   -1.947059    1.387934
N      -1.379868   -1.873901    1.486308
C       2.121612   -0.566958    1.241971
N       3.275929   -0.613918    1.226128
H       1.401323    1.795265   -0.012077
H      -0.160700    1.992286   -0.814888
H      -0.052047    2.112294    0.959411
H      -0.872531   -0.083555    0.087557
H       0.390785    0.019768    2.227266
H       0.337213   -2.473508    0.465024
H       0.567471   -2.469536    2.221940
H      -1.796540   -2.762516    1.233469
H      -1.665212   -1.677271    2.440592
