19

C       0.286665    1.622384   -0.019429
C      -0.009715    0.111387    0.011562
C       0.380457   -0.554699   -1.282733
C       0.908406   -1.779801   -1.384683
C       1.166034   -2.642240   -0.208025
O       1.352351   -3.839660   -0.323242
C       1.169115   -1.966238    1.120965
C       2.093792   -0.768656    1.309182
C       0.614699   -0.554931    1.229080
H       1.361194    1.808737   -0.110032
H      -0.215780    2.104310   -0.864317
H      -0.062266    2.103042    0.899474
H      -1.102812    0.001346    0.095294
H       0.170963    0.013423   -2.187948
H       1.115690   -2.231797   -2.349617
H       1.059722   -2.644931    1.958805
H       2.579594   -0.673148    2.273267
H       2.707135   -0.479577    0.462756
H       0.118206   -0.319208    2.165786
