23

C      -0.671216    1.247592    0.004911
C       0.160188   -0.032896    0.024048
C       1.264971   -0.083266   -1.052977
O       2.329230   -0.879055   -0.526825
C       1.954894   -1.345423    0.753456
C       1.826980   -2.835702    0.944354
C       3.003285   -2.065595    1.529256
C       0.956465   -0.348695    1.318014
C       1.648608    0.864832    1.952697
H      -0.048310    2.138122    0.134243
H      -1.200716    1.351922   -0.948399
H      -1.424538    1.244659    0.799648
H      -0.511788   -0.883092   -0.145469
H       0.903884   -0.518240   -1.993500
H       1.656283    0.918897   -1.276635
H       1.072074   -3.219560    1.623413
H       2.027947   -3.458762    0.080050
H       3.968196   -2.190712    1.050790
H       3.045891   -1.921728    2.603987
H       0.307737   -0.823687    2.061131
H       2.318360    1.360944    1.243063
H       0.922636    1.602010    2.308287
H       2.253080    0.553760    2.810163
