16

N       0.191981    1.516850    0.041357
C      -0.028985    0.095380    0.065846
C       1.023377   -0.596804   -0.668686
N       1.844888   -1.141102   -1.273122
C      -0.463457   -0.732965    1.260402
C      -1.686841   -0.185770    2.046356
N      -2.152989    1.095955    1.454152
C      -2.513633   -0.203491    0.824252
C      -1.323549   -0.744277   -0.010232
H       0.213029    1.840499   -0.921379
H      -0.583134    1.964632    0.519057
H       0.162048   -1.522673    1.656417
H      -1.924949   -0.448609    3.068092
H      -2.960871    1.397560    1.997970
H      -3.548252   -0.481660    0.674700
H      -1.435395   -1.541924   -0.733305
