19

C      -0.192988    1.560203   -0.112771
C      -0.026782    0.038930   -0.025608
O       0.630560   -0.470177   -1.164379
C       0.743225   -0.429241    1.248903
N       2.151438   -0.019555    1.103107
C       0.097762    0.055081    2.575523
O       0.786658   -0.438272    3.703914
C       0.712296   -1.905451    1.289235
N       0.654864   -3.051624    1.425455
H       0.772814    2.076177   -0.088892
H      -0.665573    1.797813   -1.068729
H      -0.823931    1.958264    0.688024
H      -1.019693   -0.424833   -0.006466
H       1.577923   -0.364612   -0.988224
H       2.219704    0.979668    1.278662
H       2.707378   -0.468379    1.824974
H       0.176584    1.145093    2.622381
H      -0.969739   -0.210223    2.591496
H       0.621737   -1.386993    3.763484
