15

C      -0.175301    1.400011    0.157831
C       0.008387   -0.066268   -0.031620
N      -0.174759   -0.721639   -1.102881
C       0.119003   -2.123302   -0.803558
C       0.527035   -2.133928    0.709431
O       0.418711   -0.735774    1.087268
C      -0.318000   -2.959677    1.557841
C      -1.015685   -3.669604    2.230716
H       0.762303    1.859934    0.485144
H      -0.499510    1.852336   -0.778560
H      -0.920006    1.588967    0.937169
H      -0.760049   -2.747338   -0.988023
H       0.929243   -2.489534   -1.441754
H       1.575371   -2.420326    0.843294
H      -1.630598   -4.292232    2.832790
