20

C       0.052911    1.585911    0.044076
C       0.102149    0.074733   -0.074345
C       0.934475   -0.483672   -1.239844
C       1.416563   -1.855110   -0.718752
C       1.108333   -1.802128    0.816109
C       2.292453   -2.174910    1.707696
O       0.746853   -0.457124    1.090257
C      -0.047086   -2.686610    1.125421
N      -0.949119   -3.369775    1.361938
H       1.064267    1.996655    0.122393
H      -0.432701    2.018317   -0.835911
H      -0.512473    1.885904    0.930258
H      -0.921940   -0.328457   -0.127111
H       0.356257   -0.561041   -2.163396
H       1.785133    0.177841   -1.430601
H       0.895869   -2.688012   -1.194151
H       2.487168   -2.000695   -0.877225
H       3.131244   -1.513715    1.475665
H       2.029582   -2.056028    2.761181
H       2.592680   -3.211668    1.535094
