18

C      -0.073265    1.538235    0.068474
C       0.007484    0.021625   -0.016768
C       0.703108   -0.477095   -1.287060
C       0.819626   -2.011145   -1.284007
C       1.303737   -2.557225    0.050218
O       2.017221   -3.526434    0.151521
C       0.760513   -1.825490    1.278942
O       0.732404   -0.419765    1.129526
H       0.930127    1.974337    0.043999
H      -0.648877    1.941105   -0.769934
H      -0.555370    1.841297    1.001318
H      -1.013254   -0.402241    0.022512
H       0.157293   -0.140882   -2.175498
H       1.702016   -0.026517   -1.328400
H      -0.177202   -2.448723   -1.446095
H       1.467600   -2.390655   -2.077882
H      -0.253880   -2.220094    1.480359
H       1.391684   -2.055994    2.139499
