21

C      -0.093645    1.366537   -0.019910
C       0.404196   -0.070510   -0.217756
C       1.087441   -0.610999    1.013169
O       0.234379   -0.968465    2.121313
C       0.959265   -1.996146    1.470495
C       0.331797   -3.205488    0.768207
C       1.588948   -4.022540    1.166451
O       2.438354   -4.130704    0.040229
C       1.996672   -2.887980    2.159648
H       0.735389    2.045762    0.207231
H      -0.593886    1.738549   -0.918837
H      -0.803296    1.414564    0.811321
H      -0.435706   -0.724211   -0.475990
H       1.112311   -0.113141   -1.055715
H       1.984555   -0.066666    1.320288
H      -0.574058   -3.546663    1.276373
H       0.148662   -3.139689   -0.306170
H       1.400306   -5.003718    1.618985
H       3.285911   -4.475212    0.339835
H       3.042930   -2.571316    2.129369
H       1.712951   -3.109779    3.193090
