15

N       0.128631    1.283227    0.006945
C       0.016483    0.024234    0.003908
N      -1.221335   -0.643166    0.012024
C      -1.279326   -2.038144    0.008935
N      -0.259346   -2.789852   -0.001087
C      -2.757196   -2.369419    0.019840
O      -3.421109   -1.112899    0.028509
C      -2.513225   -0.081678    0.023662
N      -2.800350    1.139658    0.028781
H       1.118969    1.527918   -0.000570
H       0.821976   -0.712732   -0.005098
H      -0.526025   -3.772728   -0.001481
H      -3.046278   -2.939119   -0.870423
H      -3.032093   -2.943906    0.911510
H      -3.813257    1.253531    0.037077
