22

C       0.345988    1.448743    1.027793
C       0.200654    0.063213    0.381953
C      -1.234368   -0.330103    0.158249
C      -2.106380   -1.031157    1.166085
C      -3.354878   -0.545801    1.899658
C      -1.865778   -1.664192   -0.197614
N      -2.517176   -1.125852   -1.452938
C      -3.477273   -0.058698   -1.124540
C      -2.026753    0.237170   -1.046277
H       1.399160    1.716309    1.157812
H      -0.120669    2.224092    0.410457
H      -0.134852    1.475552    2.011048
H       0.736349    0.048938   -0.577043
H       0.683565   -0.691589    1.014544
H      -1.452074   -1.578103    1.847270
H      -4.217140   -1.200592    1.733995
H      -3.160072   -0.538219    2.976938
H      -3.637995    0.471523    1.621002
H      -1.420972   -2.648879   -0.285680
H      -3.984079    0.308262   -2.014344
H      -4.113753   -0.138910   -0.257422
H      -1.538523    0.875851   -1.777457
