16

C      -0.006328   -1.196664   -0.022893
C       0.011229    0.006761   -0.014891
C       0.017988    1.426850    0.026971
C       0.303925    2.305609   -1.170881
C       1.197397    2.430083    0.021472
C       0.527111    3.274144    1.106736
C      -0.677315    2.262464    1.134439
C      -2.005527    2.780613    0.835548
N      -3.047225    3.211985    0.578859
H      -0.023451   -2.258257   -0.039560
H       0.720577    1.773391   -2.018268
H      -0.392293    3.099350   -1.430846
H       2.252069    2.191580   -0.021734
H       1.060328    3.277139    2.057986
H       0.280651    4.301991    0.829361
H      -0.707377    1.713318    2.077113
