22

C      -0.243891    1.542670    0.041552
C       0.052774    0.042874   -0.038091
C       0.666948   -0.520028    1.248063
C       0.976663   -2.020645    1.168529
C       1.578229   -2.585071    2.441777
O       2.825405   -2.035991    2.794840
C       0.679926   -3.029004    3.572173
C       1.454782   -4.044128    2.750315
H       0.669644    2.117306    0.231337
H      -0.682251    1.913912   -0.890079
H      -0.947163    1.765068    0.851985
H      -0.872814   -0.502904   -0.264648
H       0.732142   -0.153280   -0.877973
H       1.592566    0.029840    1.468559
H      -0.013689   -0.331903    2.090145
H       0.056889   -2.571871    0.936013
H       1.674211   -2.206111    0.341118
H       2.671805   -1.144449    3.125020
H       1.027614   -2.844436    4.582567
H      -0.395544   -2.968787    3.441406
H       0.909457   -4.676234    2.057851
H       2.311316   -4.512062    3.221257
