20

C      -0.012621    1.530541   -0.013756
C      -0.059117   -0.008197   -0.000977
C      -1.533763   -0.479156    0.109875
N       0.612792   -0.474553   -1.221446
C       0.945248   -1.893718   -1.265976
C       1.828857   -2.282346   -0.085202
O       2.610858   -3.208709   -0.145837
C       1.596752   -1.512855    1.151544
C       0.706693   -0.515754    1.196131
H       1.021289    1.878855   -0.069285
H      -0.550689    1.915336   -0.887167
H      -0.485109    1.949076    0.880468
H      -2.122464   -0.059742   -0.713742
H      -1.608240   -1.569468    0.070108
H      -1.989932   -0.148659    1.048695
H       0.064375   -0.214762   -2.034273
H       0.072558   -2.575801   -1.243740
H       1.492345   -2.111014   -2.186915
H       2.147547   -1.836457    2.029260
H       0.493452   -0.013887    2.137666
