16

O       0.188598    1.539138    0.892216
C      -0.015769    0.220384    0.434384
C       0.510132   -0.087773   -0.988368
O       1.458649   -1.059946   -0.424870
C       1.071051   -0.760355    0.852590
N       1.507033   -1.103422    1.976598
C      -1.435396   -0.209837    0.738728
C      -2.536883    0.059096   -0.188446
O      -1.989404   -1.257539   -0.053424
H       0.689452    1.481857    1.714750
H      -0.182467   -0.582815   -1.668328
H       1.035768    0.745097   -1.457285
H       2.302966   -1.739312    1.908079
H      -1.650523   -0.276926    1.805159
H      -3.545858    0.186333    0.198275
H      -2.335892    0.554235   -1.137355
