16

O       0.408420    0.298014    0.813121
C       0.582425    1.289817    0.170369
O       0.468715    2.524973    0.692995
C       0.794494    3.624934   -0.174812
C       2.257505    3.941239   -0.146341
C       3.156508    3.546115    0.819975
N       4.380149    4.067614    0.489013
C       4.282512    4.790933   -0.670888
C       2.975425    4.731921   -1.091968
H       0.836382    1.300827   -0.907600
H       0.458880    3.404664   -1.197505
H       0.184075    4.455831    0.192858
H       3.018561    2.941401    1.700633
H       5.227023    3.919536    1.009031
H       5.144117    5.276116   -1.100112
H       2.574323    5.200280   -1.978196
