15

C       0.025327    1.511414    0.046314
C       0.031649    0.005767    0.006902
C      -0.019783   -0.700999   -1.190373
C      -0.009954   -2.090393   -1.139926
F      -0.059162   -2.768103   -2.288353
N       0.044676   -2.803183   -0.040580
C       0.094417   -2.134464    1.114625
C       0.090516   -0.744900    1.192662
O       0.144807   -0.181018    2.433322
H       0.932106    1.907006    0.521970
H      -0.025229    1.930468   -0.960423
H      -0.836058    1.897371    0.606700
H      -0.066664   -0.190743   -2.145295
H       0.139839   -2.717334    2.030034
H       0.136594    0.777666    2.355371
