18

C       0.029319    1.390179    0.110395
O      -0.004501   -0.015667    0.020852
C       0.639623   -0.509171   -1.127611
C       0.513248   -2.036853   -1.114579
C       1.176431   -2.683429   -2.285585
C       0.707326   -3.172414   -3.484538
N       1.752387   -3.638821   -4.223798
N       2.854869   -3.469344   -3.554676
N       2.515467   -2.890487   -2.384786
H       1.061668    1.771066    0.157741
H      -0.472870    1.865754   -0.746408
H      -0.493447    1.670943    1.027508
H       0.183594   -0.101440   -2.044982
H       1.702938   -0.211382   -1.138693
H       0.931495   -2.411724   -0.173422
H      -0.548589   -2.298036   -1.112658
H      -0.307637   -3.217817   -3.845757
H       3.236813   -2.687330   -1.710771
