20

O       0.057608    1.361650   -0.210872
C      -0.010605   -0.037362    0.003996
C       0.636747   -0.528414    1.310457
C       0.004218   -1.914970    1.519610
C      -1.420001   -1.777028    0.948130
C      -2.175795   -3.000698    0.496834
C      -2.621098   -2.248167    1.727223
C      -1.476125   -0.465208    0.155625
H       0.982584    1.600857   -0.324863
H       0.441956   -0.577543   -0.844597
H       1.730721   -0.552468    1.270570
H       0.344514    0.160337    2.112194
H       0.565676   -2.671974    0.958258
H       0.010261   -2.226780    2.568296
H      -2.786919   -2.926976   -0.397383
H      -1.704664   -3.969502    0.634201
H      -2.454844   -2.708890    2.696223
H      -3.532196   -1.660961    1.664916
H      -1.990569    0.319649    0.723361
H      -1.986528   -0.562492   -0.806534
