19

C       0.061569    1.388044   -0.585898
C       1.469474    1.575115    0.003453
O       1.437752    2.054201    1.368371
C       1.665663    0.718266    1.899549
C       0.683117    0.326564    2.993393
C      -0.682201   -0.046158    2.481242
C      -0.977672   -0.217894    1.193808
C       0.003906   -0.043174    0.076358
C       1.499113    0.106740    0.499714
H      -0.680505    2.113877   -0.246889
H       0.061118    1.344969   -1.678977
H       2.244729    2.066957   -0.590595
H       2.695834    0.645207    2.275162
H       1.104084   -0.507006    3.574747
H       0.605832    1.165780    3.697818
H      -1.457597   -0.181030    3.231547
H      -1.996053   -0.472664    0.907920
H      -0.138544   -0.825978   -0.673546
H       2.198957   -0.659402    0.170696
