20

C      -0.238473    1.467696    0.134604
C      -0.035830   -0.052446    0.058898
C       0.767214   -0.495841   -1.130321
C       0.241680   -0.727270   -2.518149
C       0.907453   -1.875531   -1.750871
C       2.405292   -1.609983   -1.773160
O       3.392174   -2.169719   -2.167084
N       2.237110   -0.357231   -1.171245
C       3.020173    0.826281   -1.466507
H       0.715953    1.994616    0.229917
H      -0.739820    1.843365   -0.763214
H      -0.851573    1.734273    1.000543
H       0.459597   -0.409569    0.969466
H      -1.013212   -0.547640    0.015378
H      -0.836653   -0.816421   -2.622508
H       0.740678   -0.294450   -3.380383
H       0.395069   -2.795187   -1.506323
H       4.007874    0.492900   -1.795445
H       2.569633    1.433141   -2.264384
H       3.144004    1.453464   -0.578415
