9

O      -0.016216    1.318162    0.009342
N       1.336753    1.772720   -0.001032
C       2.084001    0.712103   -0.014076
N       1.311534   -0.421884   -0.013001
N       1.321146   -1.789204   -0.020614
N       0.065138   -2.110931   -0.010720
N      -0.789619   -1.036040    0.003543
C       0.027685   -0.014395    0.001467
H       3.161463    0.742484   -0.024144
