18

O      -0.143306    1.432675    0.105502
C       0.033237    0.041680   -0.070564
C      -1.299254   -0.690585   -0.081861
O      -2.047420   -0.158917   -1.163463
C      -3.371175   -0.640286   -1.230587
C      -4.050032   -0.004478   -2.443546
C      -5.536593   -0.281102   -2.471202
O      -6.125192   -0.788713   -3.389461
H      -0.796604    1.698658   -0.551940
H       0.572567   -0.182857   -1.004515
H       0.643254   -0.316983    0.764771
H      -1.150739   -1.775716   -0.204090
H      -1.830934   -0.519047    0.867554
H      -3.377075   -1.738355   -1.321137
H      -3.918767   -0.387470   -0.306331
H      -3.913059    1.083603   -2.370261
H      -3.599311   -0.349181   -3.376793
H      -6.079202    0.033441   -1.548374
