17

C       0.157929    1.539217   -0.133792
C      -0.086393    0.037322    0.100215
C       0.653220   -0.514288    1.281191
C       0.161221   -1.032556    2.404041
C       1.272786   -1.473467    3.310770
O       2.473463   -1.151639    2.611914
C       2.161379   -0.572386    1.350705
H       1.214645    1.750521   -0.324418
H      -0.412701    1.893002   -0.997671
H      -0.147499    2.124456    0.739038
H      -1.158817   -0.142419    0.232094
H       0.211652   -0.512953   -0.803485
H      -0.886903   -1.143635    2.654566
H       1.259493   -0.956264    4.283811
H       1.240529   -2.554865    3.522714
H       2.584090   -1.185293    0.536303
H       2.628155    0.422578    1.275461
