23

C       0.560540    1.357351    0.496097
C       0.066164   -0.027784    0.071292
C       0.636878   -0.456944   -1.275325
O       0.432268   -1.047111    1.002377
C      -0.275765   -1.039424    2.203279
C       0.135496   -1.949995    3.306287
C       1.664421   -2.057823    3.375682
C       1.759448   -0.509201    3.550069
C       0.230896   -0.409687    3.472065
H       1.653702    1.371593    0.553949
H       0.245644    2.111848   -0.232362
H       0.159332    1.641061    1.472207
H      -1.034791   -0.002060    0.001946
H       1.729139   -0.510121   -1.223485
H       0.259642   -1.444340   -1.553755
H       0.362655    0.257629   -2.057105
H      -1.356677   -0.956717    2.069491
H      -0.560507   -2.652248    3.751177
H       2.007532   -2.594677    4.262380
H       2.146134   -2.482210    2.491624
H       2.148460   -0.228375    4.530938
H       2.311678    0.037860    2.781262
H      -0.385240    0.259199    4.063501
