18

O      -0.093264    1.409052    0.026671
C       0.027693    0.002907    0.021057
C       0.696173   -0.605327   -1.239388
C       0.163914   -2.054024   -1.226397
N      -1.187063   -1.998725   -0.607900
C      -1.261946   -1.847819    0.886929
C      -0.008552   -1.673090    1.679900
C       0.688878   -0.621010    1.245556
C      -1.357689   -0.674195   -0.019244
H       0.789665    1.790561    0.063435
H       0.334407   -0.060139   -2.118312
H       1.790036   -0.550403   -1.224848
H       0.058725   -2.465256   -2.233503
H       0.824615   -2.719243   -0.662008
H      -2.122875   -2.344810    1.322024
H       0.286187   -2.348725    2.474409
H       1.672484   -0.317666    1.590971
H      -2.248528   -0.089906   -0.227462
