23

C      -0.121793    1.559329   -0.129286
C       0.020217    0.038811    0.000784
C       0.773712   -0.611292   -1.187675
C       1.528511   -1.823968   -0.593809
C       1.600940   -1.480426    0.873001
C       0.797492   -0.468814    1.212556
C       0.592067    0.066470    2.603666
C       1.531567    1.223628    2.957040
O       1.223835    1.633840    4.281281
H       0.859175    2.041958   -0.205491
H      -0.689443    1.817024   -1.030048
H      -0.649190    1.994373    0.725903
H      -0.998416   -0.378291    0.064732
H       0.109614   -0.878693   -2.014273
H       1.500521    0.110855   -1.578021
H       0.974746   -2.762661   -0.742890
H       2.512010   -1.975756   -1.053492
H       2.202757   -2.048281    1.576320
H      -0.439345    0.416146    2.734597
H       0.753209   -0.725098    3.343357
H       2.573918    0.878609    2.873254
H       1.402590    2.051388    2.243945
H       1.807070    2.362248    4.513130
