20

C       0.077049    1.345341   -0.371030
C       0.234223   -0.155201   -0.109991
C       0.743348   -0.487863    1.310045
C       0.702382   -1.982444    1.716085
N       2.086293   -2.472441    1.975037
C       2.941674   -2.375577    0.804595
C       2.993736   -1.314661    1.859640
C       2.210155   -0.077393    1.548797
O       2.645471    1.048313    1.539339
H       1.020513    1.873631   -0.217879
H      -0.263317    1.526834   -1.395132
H      -0.661477    1.783542    0.309611
H      -0.732140   -0.656568   -0.246063
H       0.907865   -0.593018   -0.857740
H       0.149531    0.100352    2.019335
H       0.137389   -2.118207    2.642085
H       0.239475   -2.614616    0.951770
H       3.755418   -3.093461    0.759431
H       2.496917   -2.131855   -0.157653
H       3.844356   -1.239793    2.528151
