16

N       0.018180   -1.155350   -0.025012
C      -0.000429    0.001116   -0.023804
C      -0.003851    1.446294    0.001799
C      -0.276314    2.283030    1.289680
N       0.444473    3.403507    0.574925
C       1.294445    2.310190   -0.031760
C      -0.505863    3.649136   -0.549714
C      -0.879781    2.200638   -1.023840
H      -1.314483    2.488121    1.562292
H       0.294586    1.948320    2.156865
H       2.057881    1.978832    0.673458
H       1.736290    2.540868   -1.004249
H      -1.367045    4.212849   -0.184946
H      -0.010698    4.236216   -1.325996
H      -0.583859    1.987896   -2.053512
H      -1.940367    1.964499   -0.912248
