17

O       0.649575    0.212663    0.716852
C      -0.170365    0.308644   -0.434058
C      -1.508977   -0.348828   -0.240207
C      -2.248828   -0.580277    1.039966
C      -1.956462   -1.748832    0.113518
C      -2.833494   -1.622690   -1.139647
O      -2.436035   -0.252918   -1.333334
C      -2.368710   -2.541155   -2.253158
O      -1.624647   -2.227202   -3.141384
H       0.309296    0.829385    1.372494
H      -0.336283    1.352360   -0.743525
H       0.364791   -0.187849   -1.249033
H      -1.637982   -0.585755    1.937047
H      -3.260579   -0.202307    1.159591
H      -1.385824   -2.617941    0.410567
H      -3.918902   -1.734769   -1.001276
H      -2.768603   -3.578732   -2.156243
