21

O      -0.076625    1.448738    0.124566
C       0.008466    0.033074   -0.016563
C       0.747578   -0.537445    1.211485
O       1.015169   -1.923027    1.198371
C      -0.131643   -2.749051    1.356271
C      -0.835116   -3.029606    0.045507
C      -2.341053   -2.962894   -0.059697
C      -1.493702   -1.893515   -0.701119
C      -1.429355   -0.478594   -0.154211
H       0.817894    1.801170    0.176040
H       0.572473   -0.235962   -0.924347
H       1.729194   -0.051563    1.283352
H       0.172838   -0.256497    2.110559
H       0.231465   -3.684919    1.794357
H      -0.823048   -2.295444    2.082908
H      -0.338659   -3.773843   -0.570391
H      -2.848995   -3.681152   -0.693755
H      -2.895742   -2.693001    0.834319
H      -1.404228   -1.949745   -1.782680
H      -1.925312   -0.407166    0.821172
H      -1.967694    0.204715   -0.819434
