16

C      -0.030902    1.444622   -0.006734
N      -0.025793   -0.014637    0.003001
C      -1.194922   -0.716909   -0.103730
C      -1.207304   -2.080081   -0.096193
O      -2.409682   -2.728603   -0.206402
C       0.032606   -2.759965    0.026097
C       1.199535   -2.065454    0.132663
C       1.242930   -0.619096    0.127594
O       2.247314    0.078263    0.218730
H       0.578605    1.813508   -0.835163
H      -1.056498    1.800609   -0.107618
H       0.410007    1.824737    0.917943
H      -2.108026   -0.143466   -0.194255
H      -2.254909   -3.677350   -0.185827
H       0.042993   -3.848228    0.034033
H       2.154810   -2.566211    0.226724
