19

O       0.352593    0.162625    1.064100
C      -0.208813    0.366322   -0.225625
C      -1.487306   -0.318395   -0.419508
C      -2.564758   -0.847389   -0.536151
C      -3.828917   -1.567290   -0.677279
C      -3.779356   -2.922731    0.023279
O      -2.766331   -3.762785   -0.448566
C      -4.166212   -3.027366    1.477160
C      -5.049923   -3.617309    0.389604
H      -0.322830    0.392996    1.710596
H      -0.336232    1.438891   -0.443562
H       0.535707   -0.011357   -0.935192
H      -4.656259   -0.970577   -0.275418
H      -4.037876   -1.726751   -1.743091
H      -1.928436   -3.306511   -0.297933
H      -3.597190   -3.723115    2.082778
H      -4.508771   -2.139044    1.997518
H      -5.993609   -3.130880    0.166789
H      -5.056253   -4.695662    0.282328
