19

O      -0.410674    1.281048    0.608493
C      -0.443654    0.058080   -0.110016
C       0.724096   -0.846415    0.280988
O       0.318111   -1.363035    1.550130
C      -1.083769   -1.683261    1.453417
C      -1.642846   -0.828444    0.289233
C      -1.245268   -3.181717    1.283440
C      -2.456130   -3.803993    0.738571
O      -1.261244   -3.717835   -0.042666
H      -0.200613    1.058647    1.523567
H      -0.453629    0.324044   -1.169484
H       0.873769   -1.652972   -0.451137
H       1.659665   -0.299878    0.420542
H      -1.525447   -1.411790    2.419881
H      -2.496142   -0.215003    0.581178
H      -1.928994   -1.470789   -0.547446
H      -0.641834   -3.759630    1.983878
H      -2.735093   -4.807042    1.056226
H      -3.280479   -3.178888    0.397859
