27

C      -1.992393    1.507582   -1.317660
C      -1.875201   -0.019257   -1.305457
C      -1.680803   -0.588449    0.106999
C      -1.638955   -2.110508    0.177834
C      -0.496289   -2.805265   -0.553642
C       0.903080   -2.468903   -0.019385
C       2.011854   -3.250517   -0.729888
C      -2.116573   -2.754675    1.459239
C      -2.970176   -2.825739    0.214776
H      -2.129455    1.890900   -2.333724
H      -2.844819    1.844483   -0.716850
H      -1.093102    1.977702   -0.903711
H      -2.774994   -0.462872   -1.750574
H      -1.038739   -0.321412   -1.947511
H      -0.763957   -0.168740    0.542822
H      -2.500650   -0.232183    0.744823
H      -0.646845   -3.890811   -0.484240
H      -0.540381   -2.569058   -1.625541
H       1.094610   -1.394177   -0.126524
H       0.935713   -2.677012    1.057730
H       2.999631   -2.994524   -0.333821
H       1.874642   -4.331157   -0.609489
H       2.019941   -3.038679   -1.805133
H      -1.623624   -3.663562    1.789448
H      -2.445794   -2.112714    2.269855
H      -3.874169   -2.225763    0.184151
H      -3.058488   -3.781487   -0.291528
