19

C      -0.044865    1.647348   -0.014205
C       0.015295    0.109802   -0.018692
C       0.882810   -0.740791   -1.011612
C       2.347853   -0.540123   -0.608351
C       2.797774    0.640278    0.212313
C       2.221556   -0.549551    0.934497
C       0.710637   -0.753652    1.091678
C       0.568084   -1.881418    0.014382
O       0.293892   -3.039367   -0.015144
H       0.499634    2.086641   -0.854251
H      -1.083687    1.978235   -0.097172
H       0.355417    2.075857    0.908447
H      -1.010769   -0.262822   -0.104968
H       0.635695   -0.817502   -2.068432
H       3.090711   -1.144714   -1.114687
H       3.877163    0.722147    0.301174
H       2.301201    1.596592    0.177503
H       2.872789   -1.160980    1.547519
H       0.295030   -0.842952    2.093234
