13

O       0.058648    1.326250    0.007119
C      -0.061693   -0.007006    0.001022
C      -1.236383   -0.675359    0.004237
C      -1.194933   -2.101169   -0.003104
C      -0.004626   -2.757626   -0.013069
O       0.113686   -4.106378   -0.020375
C       1.242143   -2.025770   -0.016604
O       2.343353   -2.527115   -0.024909
O       1.129002   -0.637908   -0.008845
H       0.999361    1.545315    0.002738
H      -2.165886   -0.125872    0.012201
H      -2.117501   -2.670394   -0.000732
H       1.067276   -4.287219   -0.026805
