18

C      -0.166295    1.506003    0.422029
N       0.028684    0.071232    0.237555
C       1.319666   -0.397666   -0.198654
C       0.846318   -0.683319    1.206759
C       1.557822   -0.044340    2.391664
C       0.601336    0.397799    3.485642
O       0.579267    1.508909    3.949670
C       0.299512   -2.056143    1.447008
O       0.514098   -2.708400    2.438795
H       0.729500    2.047660    0.755958
H      -0.485440    1.927804   -0.535478
H      -0.962588    1.673437    1.151965
H       1.323909   -1.180593   -0.953808
H       2.140272    0.315596   -0.274159
H       2.208167   -0.815749    2.824287
H       2.174379    0.807699    2.102443
H      -0.090403   -0.393731    3.844825
H      -0.330757   -2.431389    0.612624
