19

C       0.095254    1.526089    0.000528
O       1.220059    0.638460   -0.011113
C      -0.092338    0.070872    0.025540
C      -0.488795   -0.741305    1.262989
C      -1.488374   -1.762223    0.702966
C      -2.716198   -1.041814    0.051110
C      -2.000261   -1.130885   -1.296363
C      -0.982294   -2.105268   -0.733950
C      -0.531455   -0.738816   -1.168586
H      -0.031896    2.106463    0.914223
H      -0.072437    2.079939   -0.923282
H       0.405941   -1.240740    1.652484
H      -0.910734   -0.126363    2.063929
H      -1.719885   -2.585066    1.377938
H      -3.605252   -1.677659    0.065015
H      -2.981674   -0.051297    0.439227
H      -2.474657   -1.135952   -2.270941
H      -0.613494   -3.048849   -1.112350
H       0.015510   -0.615198   -2.095916
