20

C       0.008596    1.522337   -0.014743
C      -0.000246    0.008142    0.103051
C      -1.206602   -0.609253   -0.581146
N       1.252995   -0.791769   -0.198280
C       2.372575   -0.038665    0.323077
O       3.363159    0.314869   -0.238710
C       1.867334   -0.011889    1.771514
C       0.628177   -0.731581    1.223485
C       0.068259   -1.942334    1.914061
H       0.838881    2.003035    0.503536
H       0.062813    1.811214   -1.069382
H      -0.923166    1.927635    0.394052
H      -1.292313   -0.217928   -1.599484
H      -1.122892   -1.693893   -0.650657
H      -2.126411   -0.354783   -0.042887
H       2.477057   -0.656750    2.411216
H       1.750302    0.958303    2.259343
H      -0.395237   -1.647787    2.863101
H      -0.687334   -2.455262    1.317728
H       0.864924   -2.658261    2.141935
