18

C       0.065523    1.503139   -0.005431
C      -0.053985   -0.036015   -0.018889
C      -1.526202   -0.461064    0.002840
C       0.753023   -0.640889   -1.184806
C       2.074490   -1.063118   -0.571171
O       3.092286   -1.388791   -1.096065
O       1.943665   -1.050018    0.808023
C       0.697112   -0.579501    1.191582
N       0.284560   -0.581221    2.378098
H       1.111781    1.826054   -0.020798
H      -0.432819    1.925449   -0.883891
H      -0.402675    1.911238    0.893511
H      -2.052828   -0.054860   -0.866645
H      -1.625024   -1.550698   -0.013795
H      -2.012099   -0.094807    0.909810
H       0.275994   -1.539419   -1.592098
H       0.927954    0.041190   -2.018855
H       0.978417   -0.974567    3.015222
