25

C      -0.142309    1.745121   -0.282327
C      -0.008963    0.241838   -0.006813
C      -1.358187   -0.469486   -0.032262
C      -2.103391   -0.807991   -1.369267
C      -1.081241   -1.962089   -1.583825
C      -1.480011   -2.029203   -0.080079
C      -2.957370   -1.849673   -0.565034
C      -4.098526   -1.454731    0.365251
C      -5.352121   -1.026030   -0.408332
H       0.825874    2.250675   -0.211994
H      -0.542892    1.929834   -1.284919
H      -0.819531    2.221521    0.435593
H       0.697653   -0.193596   -0.720096
H       0.436824    0.095079    0.986297
H      -1.999288    0.000758    0.719001
H      -2.464693   -0.104628   -2.122749
H      -1.416937   -2.793934   -2.209729
H      -0.053476   -1.690346   -1.823378
H      -1.117188   -2.740746    0.665703
H      -3.293229   -2.682549   -1.196339
H      -4.340654   -2.320986    0.995403
H      -3.809105   -0.655367    1.054275
H      -6.178633   -0.792927    0.270171
H      -5.157005   -0.135470   -1.015364
H      -5.690277   -1.818211   -1.085749
