23

C       0.137129    1.374475   -0.379796
C      -0.045160   -0.075947    0.087932
C       0.664041   -0.294763    1.435739
C      -1.509369   -0.544902    0.165277
C      -2.509102    0.249372    0.927711
N      -2.586534    0.169296   -0.543072
C      -1.657906   -2.044565    0.095017
C      -2.946999   -2.687822   -0.240390
N      -1.839870   -2.694062   -1.218480
H       1.201194    1.630036   -0.386939
H      -0.235372    1.533568   -1.396909
H      -0.358235    2.090303    0.286817
H       0.443806   -0.719954   -0.655463
H       0.569861   -1.326430    1.785918
H       1.732311   -0.070704    1.351908
H       0.243377    0.358429    2.208227
H      -3.310719   -0.257242    1.457638
H      -2.196403    1.190217    1.373733
H      -2.237536    1.030862   -0.951135
H      -0.975836   -2.590596    0.742925
H      -3.190138   -3.657982    0.183982
H      -3.792178   -2.038383   -0.445003
H      -2.037858   -1.959305   -1.897355
