21

C       0.486512    0.711446   -0.429137
O      -0.009797   -0.571588   -0.079067
C      -1.412377   -0.609549    0.136954
C      -2.162065   -1.152490   -1.120407
O      -1.555622   -0.924765   -2.366073
C      -2.131735   -2.593806   -0.502070
C      -1.071592   -3.525738   -1.079933
C      -1.753420   -1.937323    0.871773
O      -0.730686   -2.496095    1.647808
H       1.567046    0.612686   -0.558427
H       0.038792    1.072188   -1.362750
H       0.285958    1.441295    0.367683
H      -1.753004    0.331964    0.584950
H      -3.178064   -0.755829   -1.192741
H      -0.627946   -1.168984   -2.266870
H      -3.102436   -3.098147   -0.503979
H      -0.074033   -3.075260   -1.064190
H      -1.016405   -4.447538   -0.494688
H      -1.310350   -3.785537   -2.115417
H      -2.633555   -1.819649    1.511555
H       0.094021   -2.132383    1.299313
