17

O      -0.057753    1.380374   -0.119105
N       0.068989   -0.020870   -0.065107
C      -1.061634   -0.601663    0.058575
C      -1.063617   -2.105724    0.093383
C      -1.861439   -2.635495    1.298948
C      -3.179805   -1.919950    1.441558
C      -3.417334   -0.718583    0.917490
C      -2.393547    0.097540    0.170507
H       0.861811    1.660848   -0.168361
H      -1.547704   -2.470789   -0.823399
H      -0.034674   -2.472190    0.092906
H      -2.027293   -3.713075    1.184443
H      -1.271911   -2.520443    2.219839
H      -3.961239   -2.424314    2.004374
H      -4.391977   -0.254261    1.046458
H      -2.246874    1.067840    0.657766
H      -2.762586    0.344029   -0.837315
