20

O       0.057262    1.491839    0.068223
C       0.073417    0.086977   -0.145515
C      -1.349435   -0.423579    0.048357
C      -1.455299   -1.947367   -0.069637
C      -2.845488   -2.520771    0.132796
C      -3.165498   -3.350532   -0.859514
C      -2.072682   -3.379350   -1.873667
C      -1.817870   -2.073978   -2.548728
N      -1.006329   -2.472868   -1.389954
H       0.938315    1.831416   -0.112783
H       0.424632   -0.163235   -1.156589
H       0.746596   -0.417531    0.567300
H      -1.694621   -0.119865    1.043707
H      -2.008446    0.068753   -0.674828
H      -0.772991   -2.379273    0.679610
H      -3.471346   -2.262209    0.979356
H      -4.083462   -3.917164   -0.955995
H      -1.771621   -4.315763   -2.336159
H      -1.261484   -2.035331   -3.481605
H      -2.581643   -1.309461   -2.433668
