19

C       0.068392    1.516187   -0.218134
C       0.001888    0.029382    0.008886
O       1.248898   -0.691686   -0.042817
C       0.562175   -0.634744    1.190840
C       1.110252   -0.018513    2.479481
C       0.199543   -1.025121    3.268333
C       0.029116   -1.852854    1.945843
C       0.755729   -1.689319    4.427312
C       1.233772   -2.246723    5.379895
H       0.890434    1.963783    0.345981
H       0.225067    1.734863   -1.279535
H      -0.869151    1.993941    0.087299
H      -0.813393   -0.483654   -0.506141
H       2.169677   -0.249855    2.614888
H       0.945935    1.045618    2.661257
H      -0.746915   -0.542703    3.531221
H      -0.973579   -2.213852    1.707711
H       0.734951   -2.686429    1.906083
H       1.651776   -2.737866    6.223218
