20

C       0.387483    1.306456    0.174491
C      -0.071361   -0.146079    0.037115
C       0.805482   -0.977117   -0.950922
C       1.559584   -1.587174    0.250915
O       2.799660   -0.923225    0.419054
C       0.426464   -1.070020    1.187357
N      -1.513341   -0.232040   -0.183662
C      -2.118618    0.143639   -1.338615
O      -1.541769    0.528693   -2.335629
H       1.466071    1.342773    0.346187
H       0.154343    1.856050   -0.740830
H      -0.118322    1.792164    1.016644
H       0.217573   -1.717475   -1.494785
H       1.418968   -0.412097   -1.653006
H       1.699161   -2.675425    0.235392
H       3.174039   -1.199028    1.262280
H       0.743543   -0.577800    2.111185
H      -0.295090   -1.858242    1.424224
H      -2.100465   -0.463301    0.602833
H      -3.222113    0.042646   -1.279746
