17

O      -0.158497    0.073682   -0.809030
C      -0.026300    1.095952   -0.167347
C      -1.146038    1.742588    0.629328
C      -1.500944    3.142698    0.167503
N      -1.625283    4.149101    1.236484
C      -0.499059    4.231546    0.272076
C       0.880082    3.991296    0.760768
C       1.608908    2.890506    0.547690
N       1.216405    1.703941   -0.078987
H      -2.005991    1.073245    0.568391
H      -0.833842    1.810042    1.677005
H      -2.199113    3.194296   -0.664585
H      -2.330524    4.837642    0.985246
H      -0.571380    5.031314   -0.465535
H       1.365403    4.807925    1.286896
H       2.645065    2.866818    0.873964
H       1.941597    1.153057   -0.517161
