16

O       0.123413    1.356605   -0.022096
C       0.027178   -0.039651    0.068377
C      -1.394640   -0.510827    0.052827
N      -2.377010    0.299369    0.022482
C      -3.616189   -0.495174    0.042602
C      -3.144675   -1.948851   -0.012972
C      -2.301629   -2.366276   -1.155874
N      -1.662174   -1.914236    0.111625
H      -0.787462    1.685137   -0.010613
H       0.566215   -0.521605   -0.763133
H       0.497349   -0.415077    0.991770
H      -4.169501   -0.290886    0.966574
H      -4.263877   -0.206005   -0.792310
H      -3.653427   -2.701622    0.579354
H      -2.166179   -3.420825   -1.373238
H      -2.225802   -1.701543   -2.012824
