17

C      -0.080570    1.569807    0.030596
C       0.012513    0.042925   -0.007602
O      -1.295795   -0.543313    0.036323
C       0.822072   -0.477283   -1.190297
C       1.810175   -1.293333   -0.819025
C       1.864458   -1.408462    0.667281
N       2.152897   -0.094890    1.323589
C       0.762145   -0.561066    1.184142
H       0.914087    2.010076    0.128402
H      -0.540503    1.953089   -0.888404
H      -0.698293    1.885411    0.876862
H      -1.784872   -0.229924   -0.731837
H       0.606265   -0.166513   -2.207906
H       2.515880   -1.780148   -1.481827
H       2.193322   -2.317407    1.158573
H       2.452557   -0.267946    2.282372
H       0.180636   -0.820428    2.061805
