21

O       0.004998    1.425348    0.057552
C       0.080841   -0.011252    0.006359
C       0.632621   -0.557316    1.334363
C      -0.562747   -0.375754    2.304652
C      -1.844940   -0.614321    1.443813
C      -1.343013   -0.527506    0.027361
C      -1.746607   -0.906594   -1.181186
C      -0.656120   -0.711103   -2.217801
C       0.619019   -0.507552   -1.350283
H       0.902000    1.755171    0.181370
H       0.878242   -1.619650    1.220169
H       1.538474   -0.044172    1.676792
H      -0.506340   -1.045869    3.166214
H      -0.563610    0.648614    2.685806
H      -2.293170   -1.593917    1.643186
H      -2.614639    0.132107    1.665973
H      -2.718685   -1.320620   -1.429179
H      -0.563178   -1.570577   -2.891406
H      -0.860675    0.159837   -2.854659
H       1.331213    0.195285   -1.792219
H       1.130601   -1.467482   -1.223801
