19

N       0.135893    1.318278    0.332940
C       0.080724   -0.095139   -0.033866
C      -1.292086   -0.595858    0.170919
N      -2.356552   -1.016173    0.326378
C       0.539046   -0.414840   -1.479092
O      -0.262206    0.400081   -2.300766
C       2.087997   -0.335846   -1.637895
C       2.146314   -1.880634   -1.491530
C       0.621587   -1.938744   -1.782331
H       1.105108    1.620996    0.348745
H      -0.328079    1.854264   -0.395562
H       0.724439   -0.650308    0.658821
H      -0.067335    0.200183   -3.221234
H       2.351085   -0.009006   -2.648712
H       2.647342    0.277965   -0.925711
H       2.802088   -2.416436   -2.179185
H       2.388820   -2.195318   -0.473499
H      -0.003909   -2.605252   -1.184147
H       0.414816   -2.131783   -2.839947
