17

C      -0.029921    1.442889   -0.144187
C      -0.002143   -0.010152   -0.065130
C       0.008461   -1.211077    0.000645
C       0.052596   -2.677341    0.059947
C      -1.287429   -3.259070    0.185349
C      -2.377295   -3.747517    0.309179
C       0.838060   -3.236485   -1.137450
C       0.582638   -4.558007   -1.716646
O       0.159157   -3.356524   -2.374037
H       0.651199    1.895587    0.584623
H       0.266862    1.791019   -1.139451
H      -1.035516    1.828363    0.056046
H       0.628412   -2.965712    0.954013
H      -3.348339   -4.165147    0.411526
H       1.841485   -2.814951   -1.206247
H       1.395820   -5.095074   -2.202370
H      -0.222249   -5.169421   -1.315937
