16

O      -0.040549   -0.044962   -0.041742
C      -0.032414    1.139674    0.077633
C      -0.966525    2.371121    0.080282
C      -0.010035    3.002343    1.126299
C       0.932169    2.358676    0.068692
C       2.433188    2.456515   -0.060291
C       2.922432    1.857608   -1.297682
C       3.296097    1.370097   -2.330004
N      -0.022046    2.947119   -0.973802
H      -2.046603    2.465041   -0.002157
H      -0.005238    4.093486    1.096251
H      -0.006684    2.590620    2.136313
H       2.728960    3.512101   -0.014015
H       2.891281    1.961871    0.805574
H       3.639317    0.930905   -3.233907
H      -0.019881    2.378175   -1.825892
