18

C      -0.036564    1.610920    0.066128
C      -0.012481    0.086764    0.027685
C       0.642246   -0.576724   -1.252915
N       1.574473   -1.247119   -0.333277
C       1.093816   -0.628698    0.796522
C       1.956232   -0.864497    1.834559
C       3.011438   -1.674480    1.277615
C       2.758117   -1.861124   -0.071613
O       3.412689   -2.524188   -1.060483
H       0.952425    2.025886   -0.152443
H      -0.750519    2.013099   -0.661010
H      -0.335098    1.965041    1.057948
H      -1.016575   -0.307405    0.221282
H       0.015384   -1.261411   -1.830625
H       1.128663    0.137058   -1.924823
H       1.884354   -0.531905    2.858178
H       3.843835   -2.099140    1.819862
H       4.208798   -2.910924   -0.683811
