21

C      -0.167850    1.358331    0.070624
C       0.093155   -0.122175   -0.087419
C       0.789172   -0.738880   -1.296887
C       1.986594    0.123855   -1.709723
O       2.502921    0.165480   -0.346976
C       1.453425   -0.731473    0.062609
C       1.691663   -2.145692    0.530766
C       0.691185   -2.971085   -0.337893
C       0.520262   -2.182284   -1.678303
H       0.726505    1.942377   -0.156600
H      -0.979295    1.690095   -0.585402
H      -0.454757    1.586543    1.102509
H      -0.705736   -0.755513    0.290697
H       2.683199   -0.403782   -2.372593
H       1.796036    1.128207   -2.105872
H       2.726347   -2.411769    0.288685
H       1.546091   -2.317268    1.602023
H       1.034209   -3.996885   -0.499526
H      -0.272305   -3.046070    0.177002
H      -0.459307   -2.366763   -2.131911
H       1.274858   -2.506489   -2.404893
