18

C       0.112517    1.608832   -0.148026
C       0.122752    0.092194   -0.125035
C       0.731967   -0.750137   -1.271568
C       1.228655   -1.703477   -0.113351
C       2.362681   -0.758457    0.084250
N       1.070702   -0.584438    0.842146
C       2.180800   -0.256363   -1.323048
C       3.130551   -0.302806   -2.428872
O       2.651161    0.948231   -1.894060
H       1.095905    2.024123   -0.375481
H      -0.592589    1.972351   -0.903527
H      -0.210471    1.990330    0.825973
H      -0.870790   -0.291408    0.129638
H       0.189496   -1.006397   -2.179393
H       1.105457   -2.752648    0.115482
H       3.264853   -0.865618    0.670688
H       4.181864   -0.513951   -2.236994
H       2.786941   -0.540403   -3.434822
