16

O      -0.042594   -0.108353   -0.562745
C       0.092072    0.998785   -0.109270
O      -0.506028    1.274401    1.118303
C      -1.205545    2.457731    1.327001
C      -0.923067    3.192503    2.603980
C      -0.533249    3.800337    1.270884
N       0.838148    3.888019    0.876579
C       1.364470    3.196131   -0.173771
C       0.979705    2.002605   -0.681880
H      -2.232171    2.415929    0.969672
H      -1.742961    3.632873    3.158922
H      -0.112272    2.787031    3.197709
H      -1.152857    4.620565    0.909419
H       1.290950    4.760853    1.096366
H       2.216554    3.692790   -0.632687
H       1.504267    1.646384   -1.559219
