21

C      -0.077618    1.578963    0.070819
C      -0.022275    0.051047    0.002326
C       0.743495   -0.539689    1.197445
N      -1.389505   -0.462687   -0.125531
C      -1.564400   -1.787219   -0.541804
C      -0.693839   -2.739961   -1.031072
C      -1.476552   -3.880852   -1.393631
C      -2.785473   -3.599961   -1.112296
N      -2.830108   -2.319402   -0.586902
H       0.929712    2.002941    0.120748
H      -0.589894    1.988607   -0.803378
H      -0.618100    1.908236    0.967218
H       0.491922   -0.234846   -0.922777
H       0.283166   -0.223383    2.141566
H       0.738043   -1.631801    1.165665
H       1.784285   -0.199137    1.204243
H      -1.935960   -0.246381    0.701926
H       0.376497   -2.643741   -1.112747
H      -1.101730   -4.808632   -1.798147
H      -3.684715   -4.183538   -1.219628
H      -3.668516   -1.797882   -0.400279
