23

C       0.103791    1.482971    0.389437
C      -0.117639    0.014804    0.006773
C      -1.614589   -0.323470    0.071962
C       0.497219   -0.239304   -1.390409
C       0.139772   -1.561056   -2.089813
O       0.027528   -2.701789   -1.252762
C       0.999481   -2.825452   -0.230815
C       0.575069   -2.104364    1.048258
O       0.642217   -0.694340    1.003006
H       1.168692    1.729869    0.350119
H      -0.435813    2.151060   -0.288035
H      -0.247484    1.659441    1.409661
H      -2.172645    0.313861   -0.621790
H      -1.812671   -1.363262   -0.193723
H      -1.995877   -0.139246    1.081008
H       0.202079    0.569955   -2.070000
H       1.582421   -0.155556   -1.268871
H      -0.837596   -1.479708   -2.576507
H       0.881560   -1.747197   -2.883486
H       1.081119   -3.897112   -0.011000
H       1.988175   -2.476621   -0.563399
H      -0.433790   -2.452805    1.315868
H       1.251229   -2.395146    1.861210
