23

C      -0.186791    1.531541   -0.094118
C       0.035646    0.021431   -0.060672
C       1.276723   -0.442175   -0.877210
C       2.077713   -0.569683    0.466052
C       0.726009   -0.547537    1.224213
C       0.639231    0.195172    2.548841
C       2.947161   -1.804596    0.587367
C       4.382388   -1.668091    0.110332
O       2.512175   -2.853744    1.009456
H       0.731415    2.086571    0.129031
H      -0.526235    1.846396   -1.086954
H      -0.945805    1.842573    0.631343
H      -0.897990   -0.483311   -0.327588
H       1.127378   -1.417292   -1.348225
H       1.670649    0.255775   -1.620672
H       2.674354    0.331768    0.641682
H       0.418230   -1.587828    1.366172
H       0.963896    1.237062    2.458151
H      -0.385801    0.198915    2.936215
H       1.272586   -0.286858    3.301736
H       4.930899   -0.996614    0.781806
H       4.870392   -2.643422    0.095593
H       4.417407   -1.214313   -0.886478
