17

N      -0.105039    1.279849    0.093078
C      -0.036386    0.020848   -0.025294
O       1.168038   -0.636974   -0.062986
C       1.228853   -1.795858   -0.909487
C       0.271598   -2.888825   -0.449822
C      -1.133719   -2.323452   -0.257247
C      -1.523235   -1.780581    1.085263
C      -1.259005   -0.821973   -0.063719
H       0.837926    1.675151    0.100793
H       1.002970   -1.495375   -1.941685
H       2.269957   -2.125231   -0.871337
H       0.263118   -3.687605   -1.198600
H       0.640981   -3.330226    0.482221
H      -1.919740   -2.790906   -0.840535
H      -2.550359   -1.877857    1.417267
H      -0.784477   -1.826150    1.878788
H      -2.119906   -0.309328   -0.472921
