23

C       0.026001    1.569796    0.057705
C       0.093921    0.039566    0.038448
C       0.800754   -0.499547   -1.218834
O       2.132382    0.048399   -1.226479
C       0.833964   -2.033759   -1.238546
C       1.458214   -2.611963    0.038953
C       0.748862   -2.075456    1.288651
C       0.734354   -0.536142    1.323990
O       2.033048   -0.008679    1.562594
H       1.023949    2.005105    0.133621
H      -0.448338    1.953791   -0.851907
H      -0.558458    1.917434    0.915607
H      -0.931538   -0.352836   -0.006407
H       0.265533   -0.135117   -2.109213
H       2.622282   -0.354732   -1.950230
H      -0.196296   -2.396637   -1.351146
H       1.377150   -2.376692   -2.129995
H       1.419671   -3.705885    0.014387
H       2.518575   -2.338290    0.083441
H      -0.287331   -2.440978    1.312494
H       1.241285   -2.440735    2.195381
H       0.127633   -0.215208    2.180595
H       2.478869    0.036261    0.705696
