18

C       0.087029    1.656740   -0.054868
C       0.089892    0.135773    0.019806
C       0.747883   -0.712593   -1.077637
N       2.179905   -0.960632   -0.782010
C       2.433787   -0.260924    0.528870
C       1.022324   -0.637459    1.005017
C       1.117434   -1.770963   -0.075763
C       1.024014   -3.227039   -0.141383
O       0.627386   -3.934808    0.754403
H       1.082422    2.070491   -0.235430
H      -0.561631    1.997530   -0.868905
H      -0.296354    2.089127    0.875747
H      -0.931694   -0.234487    0.155800
H       0.443215   -0.850898   -2.107747
H       3.222141   -0.805555    1.052137
H       2.704690    0.795771    0.443135
H       0.761563   -0.751821    2.053854
H       1.356483   -3.638213   -1.120895
