19

O       1.106757    0.385743    0.663072
C       0.158186   -0.375373   -0.020738
C      -1.378142   -0.054008    0.068798
C      -1.519645   -0.324067   -1.455914
C      -2.077050   -1.671396   -2.012825
C      -2.572494   -0.899082   -3.264092
C      -2.411804    0.426571   -2.470815
C      -0.004191   -0.129377   -1.522824
O       0.738808    0.374430   -2.322429
H       1.486529    1.004621    0.026801
H       0.317628   -1.440238    0.194529
H      -1.966009   -0.685272    0.737394
H      -1.539538    0.999544    0.312895
H      -1.370665   -2.492326   -2.160844
H      -2.904763   -2.028110   -1.392201
H      -1.858494   -0.962822   -4.088545
H      -3.567469   -1.144921   -3.640092
H      -3.349212    0.755928   -2.013329
H      -1.945204    1.270377   -2.984503
