18

C      -0.067113    1.601773   -0.135770
C       0.001584    0.086649   -0.046289
O      -1.266817   -0.520446   -0.227882
C       1.134943   -0.642083   -0.871800
C       1.672353   -1.227335    0.436116
N       2.020921   -0.114492    1.307002
C       0.599361   -0.516710    1.238536
C      -0.070870   -1.081984    2.416262
O       0.537069   -1.463689    3.395643
H       0.899044    2.040235    0.123265
H      -0.324131    1.916883   -1.154834
H      -0.830206    1.989140    0.546463
H      -1.639710   -0.191669   -1.052795
H       0.695759   -1.395093   -1.528285
H       1.839399   -0.013370   -1.422088
H       2.057604   -2.223862    0.615361
H       2.360596   -0.499501    2.191532
H      -1.171905   -1.160308    2.343281
