16

C       0.353099    1.417927   -0.133414
C       0.045706   -0.034793    0.153036
O       1.147578   -0.957730    0.177187
C       0.442110   -0.753380    1.393073
C       1.176911   -0.144615    2.549014
C       2.611870   -0.406873    2.742689
O       2.141940    0.868357    2.300359
C      -1.129068   -0.552024   -0.538883
N      -2.074382   -0.934918   -1.082369
H       1.263222    1.711622    0.385949
H       0.481726    1.562027   -1.209913
H      -0.476906    2.049968    0.196398
H      -0.190208   -1.591928    1.693541
H       0.551906    0.022736    3.427132
H       3.023844   -0.429113    3.749318
H       3.142241   -0.985945    1.990397
