18

C      -0.016216    1.524094    0.016047
C       1.430529    2.062051    0.043905
N       2.226711    1.606745    1.186945
C       1.928497    0.301009    1.584926
C       0.957350   -0.478066    1.006672
C      -0.037214   -0.021245   -0.006318
N       1.059293   -1.696246    1.660093
C       2.052281   -1.573466    2.585362
N       2.604214   -0.378328    2.567878
H      -0.550162    1.878694    0.905538
H      -0.536887    1.924646   -0.859769
H       1.938040    1.742143   -0.877467
H       1.429287    3.155515    0.039882
H       2.254417    2.258912    1.959722
H      -1.047485   -0.384085    0.222262
H       0.199590   -0.386133   -1.016596
H       0.514176   -2.521385    1.476800
H       2.333606   -2.386560    3.237650
