21

C       0.000000    1.585806    0.002109
C       0.031123    0.056139   -0.039735
C       0.766576   -0.473487   -1.282278
C       0.839367   -2.001974   -1.277297
N       1.486749   -2.461662   -0.042572
C       0.777284   -2.062720    1.170278
C       0.678162   -0.525097    1.227215
C      -0.567759   -2.685634    1.284555
N      -1.600006   -3.204863    1.339149
H       1.014510    1.998699    0.050983
H      -0.482551    1.994393   -0.891779
H      -0.550807    1.949392    0.876012
H      -1.005499   -0.307741   -0.081710
H       0.262565   -0.132584   -2.193585
H       1.786180   -0.067342   -1.301304
H      -0.176226   -2.417859   -1.398008
H       1.439633   -2.359886   -2.119468
H       1.603669   -3.468810   -0.060439
H       1.357340   -2.413252    2.031406
H       1.701205   -0.144260    1.327388
H       0.121678   -0.225578    2.121180
