16

O       0.116494    1.416143    0.269476
C       0.024002    0.054817    0.064234
C      -0.465992   -0.887944    1.113720
C      -1.337431   -0.634270   -0.123269
C      -2.529472    0.194508    0.014842
N      -2.656863    1.295356    0.703235
C      -3.961840    1.711980    0.469987
C      -4.562139    0.828661   -0.356122
O      -3.651337   -0.152312   -0.658025
H      -0.738142    1.727984    0.620132
H       0.814707   -0.291814   -0.594107
H      -0.013495   -1.869452    1.205559
H      -0.823699   -0.452301    2.040511
H      -1.423605   -1.424494   -0.858948
H      -4.361779    2.608864    0.914627
H      -5.538338    0.731302   -0.797168
