20

C       0.109850    0.791388   -2.269586
C       0.049933   -0.274723   -1.196564
C       1.236099   -0.622280   -0.283860
C       2.581068    0.067302   -0.368090
C       0.030980    0.071070    0.253052
C      -0.132929    1.405160    0.974030
C      -1.057931    0.606019    1.872115
N      -1.756944    0.865456    2.879448
O      -0.875923   -0.579269    1.183978
H       0.682337    1.666454   -1.949215
H       0.577626    0.407119   -3.182274
H      -0.896499    1.135442   -2.531536
H      -0.565047   -1.134377   -1.452079
H       1.288259   -1.677412   -0.026043
H       2.482964    1.138856   -0.563708
H       3.134649   -0.045717    0.570261
H       3.194151   -0.359541   -1.168971
H       0.755810    1.798737    1.471149
H      -0.622131    2.202395    0.411009
H      -2.253005    0.035016    3.207916
