16

N      -0.608513    0.782464    0.664509
C      -0.169392   -0.319760    0.186167
N      -1.011664   -1.271874   -0.293425
C      -2.425624   -0.994251   -0.378212
C      -3.088790   -0.864029    0.992999
O      -4.194832   -0.424233    1.150268
N       1.210820   -0.659225    0.121471
C       1.801675   -1.769371   -0.419103
O       1.232087   -2.698557   -0.953612
H       0.130735    1.392588    1.000557
H      -0.597703   -2.081041   -0.734424
H      -2.635687   -0.078346   -0.942253
H      -2.905343   -1.829753   -0.899447
H      -2.473830   -1.252766    1.834743
H       1.830195    0.028201    0.522867
H       2.901003   -1.730179   -0.314392
