25

C      -0.196598    1.575706   -0.046754
C       0.033090    0.066958    0.017344
C       0.820151   -0.527564   -1.159687
C       1.285501   -1.896484   -0.622241
C       0.271989   -3.009288   -0.923646
C       2.678736   -2.293261   -1.115040
O       1.351639   -1.728862    0.811455
C       0.840485   -0.459466    1.226511
C       1.989385    0.434560    1.697638
H       0.745434    2.127315   -0.125561
H      -0.805563    1.836156   -0.918603
H      -0.724121    1.938247    0.842289
H      -0.947610   -0.423854    0.051625
H       0.221181   -0.619130   -2.069939
H       1.684380    0.103941   -1.396950
H       0.253839   -3.247633   -1.992605
H       0.539524   -3.915240   -0.372303
H      -0.737532   -2.716554   -0.619842
H       3.411985   -1.524669   -0.854549
H       2.993668   -3.234455   -0.654140
H       2.686039   -2.425440   -2.202266
H       0.174077   -0.641461    2.080328
H       2.654345    0.711604    0.873073
H       1.615098    1.352747    2.162048
H       2.583380   -0.106194    2.439502
