15

C       0.026643    1.452582    0.007518
C       1.274078    0.649922    0.062127
C       1.967668    0.361529    1.424124
C       0.849143   -0.385981    2.065480
C      -0.213665   -0.562795    1.261448
N      -1.213809   -1.245857    1.918663
C      -0.691981   -1.444053    3.092636
O       0.571540   -0.947998    3.273910
N      -0.070068   -0.027393   -0.046534
H      -0.318807    1.936933    0.917338
H      -0.238953    1.958797   -0.915817
H       1.888545    0.583649   -0.828797
H       2.873336   -0.239435    1.277766
H       2.264510    1.277720    1.947439
H      -1.126094   -1.954125    3.937651
