18

C      -0.065024    1.280795   -0.310280
C       0.111664   -0.167497    0.057886
N      -1.119613   -0.989517    0.247600
C      -0.688460   -1.395624    1.618002
C       0.696516   -0.773353    1.364079
O       1.584995   -1.623000    0.609687
C       1.205514   -1.018586   -0.647737
C       0.695973   -2.008054   -1.675157
O       0.550037   -1.721799   -2.835735
H       0.895619    1.803622   -0.338518
H      -0.521725    1.364760   -1.303351
H      -0.714104    1.794106    0.407707
H      -1.974034   -0.445540    0.226329
H      -1.230120   -0.891871    2.428685
H      -0.700319   -2.475711    1.792333
H       1.207161   -0.238427    2.167460
H       2.024706   -0.427782   -1.077677
H       0.459244   -3.012829   -1.267582
