20

C       0.543014    0.623712    1.261642
O      -0.314577    0.654879    0.115019
C      -1.256738   -0.292168   -0.044769
N      -0.996837   -1.584997    0.465870
C       0.106559   -2.380933    0.189889
N       1.202349   -1.967065   -0.288731
C       2.255534   -2.941431   -0.481998
N      -2.379627   -0.092403   -0.594273
C      -2.745782    1.257018   -0.983528
H       1.322993   -0.128245    1.131083
H       0.987182    1.618929    1.319066
H      -0.029314    0.428160    2.173737
H      -1.863933   -2.099746    0.525605
H      -0.079061   -3.429812    0.464568
H       1.971384   -3.965851   -0.189332
H       2.554866   -2.955968   -1.536351
H       3.142686   -2.653962    0.094777
H      -2.203088    2.036861   -0.435855
H      -2.551886    1.405125   -2.053533
H      -3.821455    1.391642   -0.830832
