25

C       0.077896    0.637270   -0.395838
C       0.917277   -0.605245   -0.131107
C       2.359530   -0.731004   -0.711878
C       2.575456   -1.909136   -1.655911
C       3.002244    0.537443   -1.266615
O       2.887498   -1.029323    0.611912
C       1.597014   -0.827005    1.255249
C       1.657410    0.368129    2.202761
C       1.160365   -2.087297    1.994722
H       0.599872    1.564549   -0.148246
H      -0.209598    0.691467   -1.451528
H      -0.846479    0.611280    0.191465
H       0.326037   -1.485516   -0.403249
H       2.101135   -1.721773   -2.626059
H       3.644761   -2.073619   -1.826061
H       2.153467   -2.826423   -1.236239
H       2.882652    1.383312   -0.586205
H       4.075324    0.370791   -1.405919
H       2.571722    0.810020   -2.236372
H       1.998881    1.272043    1.693750
H       0.677930    0.571597    2.649187
H       2.362489    0.155145    3.012812
H       1.841846   -2.300610    2.825084
H       0.151044   -1.967289    2.404774
H       1.160768   -2.951403    1.324696
