17

C       0.287947    1.521569   -0.152904
C       0.105759    0.014185    0.011917
N       0.697401   -0.715260   -1.122700
C       1.137444   -2.041290   -0.687512
C       2.263206   -2.529066   -1.499516
N       3.129486   -2.947291   -2.138705
C       1.479483   -1.829295    0.787173
O       2.253040   -0.662565    1.036994
C       0.831305   -0.586059    1.203755
H       1.352564    1.760493   -0.206496
H      -0.191340    1.871341   -1.072382
H      -0.161645    2.062063    0.686422
H      -0.966606   -0.214775    0.150654
H       0.103746   -0.744424   -1.940532
H       0.352575   -2.818416   -0.721860
H       1.660743   -2.688166    1.425630
H       0.477529   -0.402749    2.214171
