21

C      -0.116672    1.547167   -0.110346
C       0.067308    0.030406   -0.039283
C       0.929079   -0.558479   -1.189252
C       2.389354   -0.325087   -0.675793
C       1.984899   -1.322250    0.461133
C       0.866097   -0.547426    1.209323
C       1.384100    0.461530    2.235551
C       1.160476   -1.984307   -0.657486
O       0.929531   -3.097827   -1.025060
H       0.833933    2.087566   -0.137964
H      -0.674831    1.815897   -1.013254
H      -0.684104    1.918616    0.748698
H      -0.928761   -0.424765   -0.067244
H       0.620643   -0.356201   -2.213650
H       3.148627   -0.728235   -1.348102
H       2.653082    0.689697   -0.374882
H       2.713115   -1.869878    1.057158
H       0.228269   -1.261742    1.741343
H       2.074135    1.190435    1.800820
H       0.561190    1.017645    2.695406
H       1.917145   -0.058978    3.038006
