16

O      -0.054372   -0.080367   -0.177832
C      -0.033753    1.122703   -0.040452
N      -1.087181    1.954472    0.282107
C      -0.729772    3.355672    0.112207
C       0.805691    3.299420    0.257050
N       1.091713    1.940671   -0.183248
C       2.402148    1.345837   -0.099603
C       3.013782    1.467054    1.238142
N       3.476569    1.602550    2.288117
H      -2.016052    1.619367    0.083396
H      -1.014699    3.737598   -0.877854
H      -1.189652    3.989414    0.874202
H       1.309431    4.043051   -0.367057
H       1.115004    3.454026    1.300317
H       2.281191    0.286353   -0.347829
H       3.084093    1.795245   -0.830868
