17

C       0.014035   -1.268829    0.014557
C       0.041343   -0.070049   -0.054642
C       0.082992    1.386176   -0.126390
C       1.477311    1.948911   -0.016751
O       2.435013    1.692274   -1.088030
C       3.161224    2.515431   -0.128626
C       1.944373    3.426805    0.218157
C       2.122919    3.199154    1.734873
C       2.537422    1.840142    1.130185
H      -0.009729   -2.329057    0.065637
H      -0.354235    1.731121   -1.071960
H      -0.525989    1.820037    0.677558
H       4.195553    2.780930   -0.342107
H       1.612882    4.308841   -0.330243
H       2.913005    3.775988    2.222844
H       1.215408    3.210026    2.344989
H       2.872851    0.923084    1.612849
