18

C       0.127775    1.592661    0.014926
C       0.041055    0.060709   -0.012059
C       0.732566   -0.585728   -1.197036
C       1.552953   -1.579303   -0.855162
C       1.609986   -1.785283    0.633727
C       2.766603   -1.058316    1.359456
O       1.917390    0.069727    1.656111
C       0.737272   -0.625043    1.184683
H       1.168659    1.914961    0.085525
H      -0.312425    2.019391   -0.891923
H      -0.412460    2.002435    0.874395
H      -1.022974   -0.221131   -0.012571
H       0.552093   -0.252599   -2.214428
H       2.138096   -2.173988   -1.548670
H       1.407270   -2.808987    0.957532
H       3.112689   -1.554774    2.276064
H       3.632624   -0.775906    0.749720
H       0.057060   -0.842861    2.015786
