21

C      -0.418461    1.457196   -0.025805
C       0.039994    0.009522   -0.010102
O       0.941036   -0.210373   -1.094105
C       1.567310   -1.463849   -0.850122
C       1.805074   -1.515598    0.656234
O       2.931900   -0.722644    1.073860
C       2.075063    0.310592    1.599857
C       0.793660   -0.485479    1.241775
C      -0.098564   -0.892580    2.401142
H       0.423753    2.143266    0.096505
H      -0.904572    1.685435   -0.978017
H      -1.139021    1.639427    0.777526
H      -0.843346   -0.644761   -0.136912
H       0.911186   -2.296584   -1.156306
H       2.494780   -1.506419   -1.426192
H       1.840195   -2.530521    1.066856
H       2.236094    0.466527    2.674111
H       2.217464    1.261056    1.073698
H      -0.647547   -0.031429    2.800069
H      -0.836537   -1.640272    2.090180
H       0.487252   -1.318683    3.221375
