19

O      -0.460521    1.504543   -1.031042
C      -0.470849    0.088677   -1.129614
C      -1.487875   -0.438113   -0.120620
C      -1.536974   -1.948915   -0.098446
C      -2.707896   -2.783928    0.239032
C      -4.028361   -2.185057   -0.240847
C      -3.381521   -2.129712   -1.646359
N      -2.115397   -2.798891   -1.169423
H       0.171176    1.845724   -1.670582
H      -0.746771   -0.243015   -2.142809
H       0.522208   -0.336254   -0.910027
H      -1.204875   -0.079766    0.876540
H      -2.461661    0.006841   -0.341216
H      -0.592860   -2.392577    0.217691
H      -2.624134   -3.644636    0.896478
H      -4.856451   -2.894034   -0.189516
H      -4.344174   -1.246971    0.225486
H      -3.870643   -2.776002   -2.377435
H      -3.231142   -1.144518   -2.098381
