17

C      -0.381750    1.424049    0.166416
N       0.337881    0.175644   -0.072199
C       0.832699   -0.464266    1.113657
C      -0.068151   -1.111843    2.146899
C       0.805703   -1.990849    1.270023
C       0.157940   -2.850678    0.243452
O       0.585728   -3.920921   -0.101935
C       2.029564    0.172126    1.635349
N       2.968958    0.690435    2.066170
H       0.296749    2.150774    0.623838
H      -0.710452    1.830979   -0.792701
H      -1.259257    1.316992    0.824691
H      -0.195699   -0.457548   -0.649623
H       0.182497   -1.041673    3.198407
H      -1.129628   -1.094707    1.919553
H       1.688201   -2.437282    1.712863
H      -0.794768   -2.451348   -0.177149
