21

C       0.170468    1.588595    0.188741
C      -0.028984    0.085712   -0.029076
C       0.658911   -0.473225   -1.295470
O       2.029479   -0.073245   -1.228854
C       0.549228   -1.942601   -1.298497
C       0.457264   -3.142193   -1.339196
C      -0.006370    0.074211   -2.600673
C       0.754529   -0.307951   -3.870839
O      -1.368158   -0.319732   -2.664627
H       1.231948    1.846134    0.196182
H      -0.322818    2.187858   -0.582210
H      -0.259771    1.881879    1.151117
H       0.375473   -0.463325    0.826976
H      -1.093069   -0.154050   -0.100349
H       2.530470   -0.618857   -1.843313
H       0.387332   -4.202455   -1.349867
H      -0.023358    1.164214   -2.514368
H       0.213566    0.069203   -4.742295
H       1.758232    0.127084   -3.879820
H       0.842315   -1.396271   -3.966452
H      -1.384744   -1.285063   -2.687196
