19

C       0.289112    1.482528   -0.150807
C       0.032839   -0.013045   -0.027020
O      -1.359683   -0.285757   -0.054472
C       0.889065   -0.952905   -0.937459
N       1.473683   -1.654595    0.243747
C       2.721598   -1.003666    0.762908
C       1.923197   -0.252442    1.862000
C       0.649686   -0.784479    1.174675
H       1.354604    1.724089   -0.105720
H      -0.084727    1.848211   -1.115835
H      -0.229181    2.028570    0.643605
H      -1.724685    0.099467   -0.858845
H       0.272515   -1.625862   -1.541886
H       1.629259   -0.466238   -1.584205
H       3.454854   -1.731298    1.123203
H       3.216959   -0.357424    0.027304
H       2.064805   -0.667968    2.861832
H       2.046808    0.831128    1.920612
H      -0.104838   -1.273941    1.795314
