18

C       0.039168    1.558634    0.110312
C      -0.001887    0.046039   -0.009420
O       0.669705   -0.494618    1.125868
C       0.765064   -1.842061    1.244646
C       0.251867   -2.772462    0.333241
N       0.371139   -4.094209    0.493902
C       1.008783   -4.543009    1.572975
C       1.555036   -3.696251    2.538376
C       1.432377   -2.326970    2.373471
H       1.072321    1.915609    0.133059
H      -0.468068    2.015382   -0.744483
H      -0.459553    1.886341    1.026421
H      -1.038501   -0.317657   -0.037314
H       0.495050   -0.288627   -0.930649
H      -0.274315   -2.448731   -0.558681
H       1.088957   -5.622205    1.674611
H       2.066637   -4.106228    3.402509
H       1.836067   -1.619793    3.089618
