23

C      -0.811632    0.984633   -0.167226
C       0.276300   -0.045662    0.091709
C       1.525198   -0.061467   -0.836915
C       2.431255   -0.264528    0.411682
C       1.227786    0.165811    1.304931
C       2.889470   -1.703821    0.615831
O       3.672009   -2.177974   -0.490688
C       3.694309   -1.913066    1.901726
O       4.140185   -3.247523    2.006527
H      -0.390542    1.995729   -0.217573
H      -1.325736    0.790935   -1.115430
H      -1.566321    0.977487    0.627395
H      -0.170399   -1.044923    0.136172
H       1.581472   -0.834798   -1.606264
H       1.689192    0.913211   -1.307056
H       3.307890    0.393881    0.465808
H       1.291997    1.220054    1.590678
H       1.034185   -0.421954    2.206965
H       2.023677   -2.377131    0.637693
H       4.367285   -1.528687   -0.652471
H       4.541860   -1.201598    1.908687
H       3.082735   -1.698594    2.784348
H       4.415401   -3.490453    1.112463
