20

C       0.051682    1.499641   -0.237971
C      -0.003912   -0.001873   -0.033087
C       1.286404   -0.803227   -0.125459
C       0.641047   -0.597526    1.209401
C      -1.222997   -0.696187   -0.515922
N      -1.466198   -1.942706   -0.431829
C      -2.782026   -2.163875   -1.040885
C      -3.244033   -0.753972   -1.495790
O      -2.155131    0.108591   -1.103528
H       0.992163    1.895566    0.156017
H      -0.010150    1.761525   -1.298377
H      -0.771726    2.004530    0.275895
H       1.213886   -1.787906   -0.570761
H       2.188982   -0.248187   -0.358494
H       1.094888    0.100572    1.904870
H       0.136287   -1.444427    1.657845
H      -2.699869   -2.865448   -1.878561
H      -3.467326   -2.611690   -0.312565
H      -3.380330   -0.664004   -2.577363
H      -4.153326   -0.407232   -0.996342
