19

C       0.566553    1.512684   -0.382282
C       0.082428    0.133956    0.048906
C       0.663492   -1.098460   -0.720408
N       1.231070   -1.646834    0.553341
C       0.668025   -0.504305    1.350929
C       2.098263   -0.151871    1.855102
O       2.379359   -0.261423    3.225801
C       2.561934   -1.272727    0.886084
N       3.637891   -1.727409    0.408675
H       1.656547    1.554342   -0.478224
H       0.144837    1.777708   -1.357520
H       0.261300    2.283073    0.333959
H      -1.010908    0.124999    0.070157
H      -0.083592   -1.764689   -1.158395
H       1.432051   -0.882373   -1.468552
H      -0.048464   -0.751678    2.139750
H       2.457125    0.835778    1.552824
H       2.170331   -1.159046    3.507532
H       4.440844   -1.262213    0.834443
