16

O      -0.326327    0.009280    0.488623
C      -0.116704    1.103682    0.063512
C      -1.136964    2.088181   -0.456992
C      -1.040340    3.460545    0.165531
C      -0.489876    3.766437    1.340813
C       0.153136    2.800792    2.315858
N       1.579380    2.562279    2.045568
C       1.945086    2.020809    0.972710
O       1.188003    1.580632   -0.090206
H      -0.965297    2.182451   -1.537519
H      -2.130647    1.645926   -0.331704
H      -1.461632    4.262424   -0.435508
H      -0.468955    4.812237    1.635854
H       0.088383    3.219440    3.323125
H      -0.395025    1.851834    2.344738
H       2.998613    1.882843    0.743010
