16

O       0.019386   -0.027364    0.478295
C      -0.019909    1.155179    0.195030
C      -1.339035    1.864696   -0.076257
C      -1.243845    3.317962   -0.413574
C      -0.086305    3.987497   -0.481743
C       1.242246    3.319132   -0.219132
N       1.111487    1.911710    0.104276
C      -0.018218    5.370836   -0.804577
C       0.098152    6.539453   -1.072705
H      -1.841826    1.309907   -0.879472
H      -1.973470    1.709904    0.806512
H      -2.171666    3.846354   -0.611583
H       1.882819    3.445717   -1.104050
H       1.749254    3.849732    0.599927
H       1.958442    1.394720    0.292935
H       0.179135    7.571114   -1.311121
