15

C       0.072640    1.507763    0.034923
C       0.008283    0.058443   -0.080072
C      -0.053278   -1.139276   -0.171205
C      -0.132068   -2.585360   -0.279498
C      -1.440468   -3.205379    0.246935
C      -1.526384   -4.716833    0.114890
O      -2.327126   -2.546242    0.725815
H       0.918492    1.822175    0.656298
H       0.187754    1.981776   -0.946141
H      -0.840180    1.906423    0.490889
H      -0.011208   -2.910043   -1.323316
H       0.697033   -3.066531    0.259882
H      -0.693295   -5.197703    0.639693
H      -2.472286   -5.067867    0.528012
H      -1.452947   -5.013271   -0.937618
