18

C       0.597209    1.640949   -0.082645
C      -0.115184    0.292310    0.123755
C       0.092702   -0.707093   -1.047200
C       1.206403   -1.695087   -0.574284
C       1.164886   -1.529863    0.939062
C       0.448336   -0.471052    1.303242
C       1.011170   -3.065911   -1.033913
C       0.845293   -4.195935   -1.409964
H       1.667820    1.495670   -0.263368
H       0.176737    2.178586   -0.939011
H       0.493890    2.281959    0.799256
H      -1.184292    0.496361    0.263264
H      -0.824079   -1.276482   -1.218380
H       0.354914   -0.212924   -1.986224
H       2.188717   -1.359469   -0.940505
H       1.697999   -2.203961    1.598867
H       0.314020   -0.134316    2.326142
H       0.700370   -5.193728   -1.742371
