17

C       0.094053    1.574311   -0.237979
C       0.062801    0.127433   -0.084936
C       0.035264   -1.070214    0.032419
C      -0.011475   -2.507440    0.196780
C       0.481640   -3.060582    1.550706
O      -0.115187   -4.349864    1.659500
C      -1.440183   -4.246548    1.179235
C      -1.432460   -3.129202    0.131611
O      -2.341686   -2.802363   -0.575608
H       0.935399    1.890322   -0.864361
H      -0.825768    1.940726   -0.706632
H       0.195009    2.074645    0.731332
H       0.558316   -3.007577   -0.601107
H       1.563716   -3.187214    1.603891
H       0.157621   -2.398820    2.368135
H      -1.754136   -5.203268    0.752778
H      -2.152615   -3.971832    1.975531
