19

C       0.276748   -1.161539    0.213567
C       0.087119    0.023528    0.144131
C      -0.150521    1.469437    0.049120
C      -0.763295    2.060742    1.335320
C       0.485998    2.314806    2.162425
C       0.463281    2.944146    3.525131
C       0.803457    1.479147    3.375383
C       1.562257    2.643958    1.130770
O       1.065353    2.198692   -0.136035
H       0.448398   -2.208088    0.269679
H      -0.771949    1.669103   -0.830506
H      -1.270292    2.999749    1.085978
H      -1.479053    1.391335    1.815747
H       1.263873    3.630732    3.782934
H      -0.498846    3.208503    3.952145
H       0.071797    0.746110    3.698220
H       1.834542    1.176929    3.528469
H       1.746565    3.723432    1.052445
H       2.515313    2.148602    1.357529
