16

C       0.516170    1.049200   -0.535557
O      -0.118989    0.325020    0.515550
C       0.597283   -0.676341    1.045251
N       0.119656   -1.348911    2.001261
C       0.883421   -2.458122    2.553011
C       0.026131   -3.731053    2.350629
O      -0.267259   -4.492254    3.227028
C       2.208923   -2.721351    1.984096
C       3.275322   -2.967359    1.484013
H       0.763952    0.394055   -1.378718
H      -0.201819    1.800779   -0.864326
H       1.425411    1.548997   -0.182309
H       1.584535   -0.836139    0.593853
H       0.967704   -2.317918    3.636508
H      -0.298333   -3.866769    1.296485
H       4.228137   -3.188440    1.068858
