20

C      -0.265192    1.393908    0.461498
C       0.006786   -0.035395    0.031070
C       1.357727   -0.393937   -0.534890
C       0.957505   -0.883480    0.837787
N      -1.131006   -0.709790   -0.541229
C      -2.103229   -1.376475    0.169350
C      -3.093615   -1.758804   -0.704327
C      -2.716500   -1.298412   -1.996765
C      -1.510624   -0.651632   -1.863015
H       0.633897    1.849772    0.886469
H      -0.587072    2.001090   -0.390756
H      -1.056388    1.427459    1.217472
H       1.389410   -1.123400   -1.335197
H       2.096718    0.396166   -0.608959
H       1.421673   -0.429508    1.706303
H       0.724942   -1.936215    0.943968
H      -1.995702   -1.522208    1.232344
H      -3.981172   -2.316982   -0.447981
H      -3.260228   -1.436750   -2.918857
H      -0.881783   -0.159763   -2.587847
