23

C      -0.631094    1.490548    0.185190
C       0.006109    0.106137    0.006450
C      -1.082121   -0.930913   -0.327324
C       1.110949    0.099873   -1.086475
C       2.114233   -1.007905   -0.679143
C       2.032503   -1.050986    0.838435
C       2.102009    0.281102    1.566699
C       0.768434   -0.356587    1.260918
O       0.025428   -0.877717    2.326182
H       0.118720    2.242806    0.451863
H      -1.127799    1.821202   -0.733584
H      -1.390689    1.475758    0.976190
H      -1.629432   -0.632229   -1.227733
H      -0.650168   -1.920817   -0.505144
H      -1.794497   -1.029940    0.495286
H       0.691795   -0.063492   -2.083668
H       1.614054    1.071895   -1.115918
H       1.811114   -1.977632   -1.090187
H       3.123651   -0.803598   -1.052450
H       2.372509   -1.931325    1.371970
H       2.409206    0.233961    2.605883
H       2.428962    1.171916    1.039731
H      -0.315496   -0.137136    2.839280
