21

C       0.011002    1.476606   -0.026079
C       1.395061    0.878660   -0.091031
C       0.183935   -0.008095    0.136975
C       0.485425   -0.766219   -1.183542
C       1.719320    0.113144   -1.403884
C       0.623262    0.066445   -2.427146
C       0.893884   -0.624049   -3.781180
C       0.271370    0.604761   -4.503623
C      -0.201646    1.166747   -3.132869
H      -0.189405    1.998347    0.906071
H      -0.485865    1.915956   -0.879751
H       2.165044    1.153174    0.618501
H      -0.105370   -0.525915    1.042486
H       0.413353   -1.845702   -1.255530
H       2.728683   -0.198277   -1.648573
H       1.940167   -0.845303   -4.011540
H       0.312531   -1.542001   -3.914137
H       1.019146    1.238302   -4.986255
H      -0.512803    0.385490   -5.231239
H      -1.279475    1.070535   -2.970113
H       0.091427    2.197897   -2.922462
