17

O       0.039871   -0.051687   -0.230325
C       0.071102    1.137868   -0.056198
C       1.302958    1.977315   -0.045657
C       1.680591    2.784713    1.226123
C       2.715728    3.651336    0.482296
C       1.811051    4.444849   -0.495485
C       1.592642    3.081384   -1.165884
C       2.996922    2.622523   -0.721194
O       2.558157    1.316483   -0.341013
H      -0.856955    1.733655    0.113161
H       0.866872    3.372511    1.658881
H       2.096844    2.110253    1.976188
H       3.508624    4.125600    1.056649
H       0.960305    4.989722   -0.076835
H       2.379085    5.104210   -1.158216
H       1.180254    2.916255   -2.159405
H       3.916321    2.666858   -1.301771
