21

C      -0.060737    1.472439    0.114336
C      -0.053137   -0.022149    0.063617
C      -1.043170   -0.852208    0.407178
C      -0.684658   -2.277728    0.194870
C      -1.336470   -3.408130    0.971711
C      -1.663913   -3.226176   -0.476616
O      -2.962111   -2.794882   -0.765838
C       0.812747   -2.274735   -0.144202
C       1.147968   -0.791026   -0.453636
H       0.739038    1.852737    0.763278
H       0.118174    1.904801   -0.879222
H      -1.012715    1.860887    0.486543
H      -2.015075   -0.546424    0.777595
H      -0.721804   -4.254222    1.263014
H      -2.116780   -3.144135    1.677932
H      -1.247872   -3.945412   -1.184990
H      -2.906521   -2.156767   -1.485510
H       1.389204   -2.616477    0.722275
H       1.056932   -2.944931   -0.974249
H       1.281448   -0.611841   -1.530325
H       2.082864   -0.468752    0.021057
