18

C       0.063624    1.566369    0.204362
C       0.028527    0.042743    0.070514
C       0.754040   -0.702837    1.203601
C       0.572324   -2.221334    1.097239
N       2.174463   -0.357622    1.237200
C       2.796480    0.196378    2.311884
O       2.262812    0.499304    3.358449
H       1.091351    1.941257    0.201034
H      -0.471808    2.045003   -0.621061
H      -0.401961    1.890192    1.140984
H      -1.011751   -0.303996    0.051447
H       0.464827   -0.260998   -0.892059
H       0.363795   -0.359210    2.166043
H       1.076017   -2.731687    1.922534
H      -0.489134   -2.486244    1.124588
H       0.985895   -2.603175    0.155872
H       2.739811   -0.586200    0.433343
H       3.878281    0.349413    2.121751
