21

C      -0.054146    1.587704    0.169642
C       1.467560    1.357107    0.047922
O       1.283312    0.105194    0.792024
C       0.014465    0.049543    0.055917
C       0.511722   -0.228003   -1.380439
C      -0.395474    0.125461   -2.576593
C       0.517713    0.929590   -3.526542
C       1.419135    1.758350   -2.586578
C       1.682553    0.825575   -1.386883
H      -0.328682    1.898961    1.177622
H      -0.586752    2.174997   -0.581487
H       2.209193    2.027455    0.483233
H      -0.727469   -0.615095    0.499392
H       0.883026   -1.253024   -1.446506
H      -0.822470   -0.759206   -3.057288
H      -1.238565    0.747977   -2.254253
H       1.137588    0.237165   -4.109541
H      -0.038471    1.543294   -4.242127
H       2.340842    2.087325   -3.074695
H       0.890657    2.663972   -2.265966
H       2.662446    0.348194   -1.456302
