17

O      -0.102331    1.319135    0.145383
C       0.094019   -0.053100   -0.033239
C       1.334868   -0.680412    0.714728
C       1.191016   -2.116509    0.231848
C       0.396598   -2.079543   -0.859905
C      -1.120224   -2.152757   -0.799494
C      -1.303254   -0.885647   -1.574816
C      -1.307809   -0.763994   -0.062453
C       0.234639   -0.667141   -1.462219
H       0.747414    1.759057    0.027173
H       2.233307   -0.116941    0.413306
H       1.290943   -0.641050    1.809452
H       1.160903   -2.932463    0.948017
H      -1.816122   -2.962574   -0.615870
H      -2.034288   -0.587860   -2.311672
H      -2.145559   -0.572617    0.597857
H       0.905958   -0.266416   -2.219130
