16

O      -0.039510    1.412817   -0.034663
C       0.015813   -0.003659   -0.007368
C       0.642124   -0.553877    1.305717
C      -0.560196   -0.844214    2.198137
C      -1.807672   -0.422723    1.565265
C      -1.433335   -0.499416    0.067703
C      -1.432172   -2.014580    0.313204
O      -1.478596   -2.987098   -0.373449
N      -1.527615   -1.926973    1.758411
H       0.859990    1.749317   -0.101271
H       0.522289   -0.397796   -0.898364
H       1.245162   -1.451497    1.134006
H       1.286755    0.201088    1.765495
H      -0.447143   -0.847686    3.276115
H      -2.675771    0.034343    2.017950
H      -2.092150   -0.103805   -0.702349
