13

N       0.021662    1.052349    0.615289
C      -0.026156   -0.050012    0.033860
C      -1.137620   -1.003203   -0.360028
C       0.039778   -1.835368   -0.945728
O       0.984010   -0.839799   -0.505214
C       0.271126   -3.180549   -0.288656
O       1.051644   -3.394671    0.597579
C      -0.601178   -4.247601   -0.828245
N      -1.298934   -5.059391   -1.265449
H       0.976668    1.402707    0.700529
H      -1.674663   -1.453527    0.476205
H      -1.847340   -0.615514   -1.090497
H       0.035171   -1.943319   -2.035416
