18

C       0.218464    1.433308    0.679576
C       0.115443    0.048338    0.242542
C       0.031691   -1.091200   -0.136647
C      -0.089309   -2.483699   -0.561230
C      -1.428478   -3.102526   -0.173866
C      -1.462116   -4.405577    0.570974
N      -1.849122   -3.169326    1.239214
C      -2.568837   -2.841981   -1.106462
O      -2.449801   -2.404614   -2.222621
H       1.041788    1.568863    1.389597
H       0.396933    2.104040   -0.167938
H      -0.702594    1.762048    1.173271
H       0.003656   -2.552490   -1.651288
H       0.729155   -3.074551   -0.132083
H      -2.271013   -5.112558    0.404807
H      -0.499191   -4.860544    0.788522
H      -1.097632   -2.810749    1.824041
H      -3.557858   -3.108233   -0.673061
