18

C      -1.397223    0.715279    0.499305
C      -0.060996    0.162112    0.004431
O       0.846389    0.263978    1.106574
C       2.199417   -0.047269    0.833069
C       3.075687    0.852747    1.707786
C       2.498435   -1.471406    1.111157
N       2.778831   -2.564514    1.358369
C      -0.187825   -1.205503   -0.507219
C      -0.292811   -2.322923   -0.935943
H      -1.260197    1.737626    0.859854
H      -2.127737    0.713777   -0.312928
H      -1.777228    0.097764    1.316173
H       0.313626    0.801119   -0.812510
H       2.426405    0.134606   -0.227557
H       4.133616    0.624714    1.556417
H       2.889502    1.897171    1.447593
H       2.829199    0.700910    2.761013
H      -0.370246   -3.317389   -1.301909
