14

O      -0.158273    1.315313   -0.027555
N       0.022231   -0.083332    0.042189
C      -1.090178   -0.682340   -0.050769
C      -2.558862   -0.262217   -0.070757
C      -2.910051   -1.756834    0.072181
C      -2.342824   -2.526148   -1.074625
C      -1.407731   -2.130344    0.054906
H       0.743363    1.637625    0.073504
H      -2.800653    0.342463    0.807849
H      -2.930366    0.248609   -0.964186
H      -3.679240   -2.155250    0.720221
H      -2.582601   -3.584477   -1.100100
H      -2.242593   -2.066677   -2.054519
H      -0.860324   -2.866634    0.628546
