20

C       0.089338    1.331150   -0.061129
O      -0.012813   -0.060400    0.141011
C      -1.318704   -0.605849    0.050032
C      -2.250843   -0.065090    1.131779
C      -1.973304   -0.619256   -1.386389
C      -1.953113   -2.149908   -1.344086
C      -0.541210   -2.634474   -1.182175
C      -1.275021   -2.135732    0.028751
H       1.155636    1.565146   -0.119424
H      -0.389408    1.650130   -0.999112
H      -0.347318    1.913415    0.762842
H      -2.463797    0.999238    0.992376
H      -3.204417   -0.600447    1.111454
H      -1.799160   -0.202184    2.119945
H      -2.974798   -0.182609   -1.393873
H      -1.380754   -0.163876   -2.186194
H      -2.748722   -2.796377   -1.692576
H      -0.406921   -3.710700   -1.222513
H       0.287644   -2.059399   -1.584458
H      -1.456750   -2.761786    0.894605
