16

C      -0.338782    1.077907   -0.308205
C       1.074614    1.132483    0.212645
C       0.387401   -0.194294    0.035635
N       0.005313   -0.898954    1.226978
C      -1.087193   -1.706298    1.272847
C      -1.493024   -2.632176    2.217329
N      -2.687344   -3.118702    1.784941
N      -3.063757   -2.622043    0.708356
O      -1.981549   -1.634756    0.309923
H      -1.134058    1.385681    0.359344
H      -0.519216    1.282743   -1.356686
H       1.878063    1.379319   -0.471370
H       1.218858    1.483935    1.228237
H       0.707657   -0.819727   -0.795510
H       0.745104   -1.141105    1.868135
H      -1.025164   -2.954831    3.130508
