22

C       0.903649   -0.314024   -1.102667
C       0.025000   -0.016167    0.120024
C      -0.000289    1.489385    0.414853
C      -1.408691   -0.555245   -0.047924
C      -1.530593   -2.078134   -0.092791
O      -0.989341   -2.701958    1.081758
C      -2.972366   -2.558439   -0.280621
O      -3.043704   -3.966925   -0.248136
H       1.913573    0.083760   -0.960008
H       0.998182   -1.387362   -1.290150
H       0.489216    0.150592   -2.005854
H       0.465810   -0.528730    0.984522
H      -0.588615    1.714064    1.311121
H       1.011280    1.877720    0.572324
H      -0.441839    2.046633   -0.420357
H      -2.031760   -0.185193    0.780862
H      -1.852065   -0.140683   -0.964253
H      -0.931305   -2.490478   -0.911845
H      -1.396223   -2.279379    1.848136
H      -3.608006   -2.103278    0.502498
H      -3.362929   -2.227913   -1.249593
H      -2.431181   -4.232820    0.450637
