25

C       1.412513   -0.169390   -1.156807
C       0.425513    0.017332    0.001161
C       0.910344   -0.575420    1.342355
C      -0.088656   -0.346265    2.509915
C       0.426812   -0.973130    3.815798
C      -0.404214    1.138709    2.737031
C       1.128777   -2.084458    1.156021
C       2.535412   -2.617715    1.343585
O       0.204254   -2.809677    0.861905
H       1.573238   -1.227822   -1.386537
H       1.036927    0.307633   -2.067168
H       2.386854    0.278053   -0.928302
H       0.233595    1.086189    0.131185
H      -0.531040   -0.454349   -0.251116
H       1.868647   -0.107233    1.609028
H      -1.015003   -0.863835    2.230653
H      -0.289796   -0.817811    4.628505
H       0.582145   -2.052114    3.720749
H       1.376450   -0.518067    4.123926
H      -0.902942    1.598325    1.880333
H      -1.065740    1.256462    3.601720
H       0.509436    1.710301    2.942230
H       3.220335   -2.117598    0.648991
H       2.892496   -2.388126    2.354142
H       2.558401   -3.695697    1.176812
