17

C      -0.062112    1.438440   -0.110362
N      -0.000977    0.008470    0.059185
C       0.641399   -0.630214    1.072525
N       0.616521   -1.981760    1.009273
C       1.235358   -2.611680    1.997259
N       1.874876   -2.090715    3.042148
C       1.895718   -0.745800    3.089396
N       2.593625   -0.195445    4.135219
C       1.283063    0.046402    2.114532
H       0.935460    1.886692   -0.216541
H      -0.631000    1.662949   -1.014340
H      -0.564898    1.928171    0.734138
H      -0.388863   -0.599666   -0.642228
H       1.215909   -3.699595    1.950809
H       2.790920   -0.834923    4.889290
H       2.375805    0.748885    4.407160
H       1.315368    1.127257    2.167673
