23

C       0.807244    0.872197    0.426786
C      -0.390409    0.175128   -0.197305
O      -1.505219    0.337805    0.249730
C      -0.197084   -0.667580   -1.446541
C      -1.162957   -0.226615   -2.538746
C       1.167501   -1.204487   -1.823576
C       0.137044   -2.153521   -1.257190
C       0.334303   -2.684464    0.153869
C      -0.495891   -3.187905   -2.171886
H       1.289635    1.515469   -0.318421
H       0.470990    1.472364    1.273112
H       1.568344    0.162102    0.763649
H      -0.987815    0.822794   -2.802384
H      -1.046927   -0.813987   -3.451003
H      -2.195435   -0.312492   -2.191282
H       1.396025   -1.271127   -2.883260
H       2.025267   -0.950249   -1.209512
H       0.844220   -1.973519    0.807825
H      -0.627915   -2.927395    0.618366
H       0.935782   -3.600601    0.133745
H       0.098583   -4.109083   -2.157290
H      -1.508007   -3.444719   -1.838588
H      -0.557705   -2.858504   -3.210658
