22

C      -0.016339    1.597817   -0.133212
C      -0.011545    0.066374   -0.065914
C      -1.428664   -0.496366    0.056658
O      -1.996460   -0.004856    1.261793
C       0.680875   -0.559992   -1.272491
O       2.050591   -0.136062   -1.261310
C       2.830757   -0.572056   -2.270411
C       4.230641   -0.034984   -2.109409
N       2.369101   -1.325410   -3.183284
H       1.003557    1.986806   -0.176146
H      -0.547982    1.944072   -1.028483
H      -0.519326    2.015661    0.741063
H       0.535849   -0.245836    0.833169
H      -2.025941   -0.188430   -0.818072
H      -1.393090   -1.597823    0.058682
H      -2.908797   -0.303971    1.307999
H       0.646716   -1.654869   -1.241538
H       0.216580   -0.248412   -2.215861
H       4.878882   -0.383000   -2.915062
H       4.216457    1.059228   -2.107688
H       4.648292   -0.353571   -1.149499
H       3.096260   -1.553341   -3.857303
