19

C      -0.761264    1.281537   -0.542668
C      -0.112076   -0.093315   -0.374160
C       0.866698   -0.544630   -1.500387
C       1.076079   -2.060383   -1.569246
O       2.054862   -2.026978   -0.501850
C       2.067309   -0.571198   -0.483066
C       3.440698    0.023042   -0.608665
C       1.083369   -0.084505    0.609701
O       1.209608    0.252122    1.750627
H      -0.020486    2.042780   -0.810336
H      -1.522097    1.260241   -1.328977
H      -1.236457    1.593700    0.391464
H      -0.874157   -0.840159   -0.124258
H       0.865469    0.037144   -2.420774
H       0.211162   -2.686973   -1.320460
H       1.526765   -2.423781   -2.501130
H       3.942029   -0.337201   -1.511776
H       3.390864    1.116063   -0.642193
H       4.043475   -0.261411    0.259871
