15

N      -0.005251    1.397502    0.186341
C      -0.058588    0.018731    0.054581
C      -1.194414   -0.744281    0.011744
C      -1.145168   -2.167277   -0.055775
C       0.064082   -2.777802   -0.100505
O       0.225671   -4.124749   -0.225672
N       1.206350   -2.012885   -0.081290
C       1.253264   -0.622357   -0.011131
O       2.321116   -0.018409   -0.028139
H       0.909463    1.760048   -0.051865
H      -0.769155    1.915351   -0.220071
H      -2.165115   -0.258750    0.046301
H      -2.043803   -2.767328   -0.057611
H       0.841818   -4.446033    0.443704
H       2.104668   -2.457409   -0.215318
