16

N       0.006625   -1.154360    0.105507
C      -0.029274    0.000394    0.071951
C      -0.033913    1.460851    0.027472
C       1.385365    2.044407    0.012878
C       1.569340    3.561938   -0.009059
C       1.535695    3.976386    1.474165
O       1.257588    2.811850    2.252720
C       2.165349    2.105466    1.360345
C       2.802759    3.464213    0.888392
H      -0.585704    1.783271   -0.862958
H      -0.564384    1.846126    0.903817
H       2.003828    1.573556   -0.755437
H       1.381651    4.254551   -0.819473
H       1.233194    4.946221    1.844667
H       2.640695    1.239526    1.813951
H       3.809327    3.846262    0.802679
