17

C       0.068720    1.391385   -0.438269
C      -0.015342    0.038500    0.276816
O       0.314871    0.212755    1.640941
C      -1.374094   -0.600087    0.126296
N      -2.060467   -0.904546    1.219069
N      -3.211294   -1.464768    0.761293
C      -3.249401   -1.511722   -0.587447
O      -4.336896   -2.042545   -1.182733
C      -2.073263   -0.960728   -1.053453
H       1.061731    1.822797   -0.285487
H      -0.101515    1.283122   -1.514387
H      -0.676573    2.080334   -0.030552
H       0.725658   -0.636764   -0.184751
H      -0.398448   -0.190449    2.154045
H      -3.916284   -1.783982    1.403210
H      -4.217453   -2.005771   -2.136765
H      -1.768345   -0.841258   -2.080189
