14

N       0.121106    1.395820    0.076413
C       0.032958    0.004311    0.010826
N      -1.111894   -0.636770    0.005801
O      -0.781553   -1.989625    0.015138
C       0.556573   -2.125889    0.014122
C       1.140269   -0.897471    0.022819
N       2.481681   -0.514034    0.065447
C       3.530907   -1.387268   -0.002176
O       3.418044   -2.581953   -0.165409
H       0.628415    1.790696   -0.708346
H      -0.802190    1.813108    0.117672
H       0.954932   -3.124590    0.011127
H       2.670551    0.447721    0.306670
H       4.502431   -0.870069    0.103109
