23

C       0.049467    1.518857    0.255083
C       0.012362    0.002464   -0.016280
C       0.624567   -0.735344    1.194185
C      -1.461306   -0.417967   -0.192028
C       0.792974   -0.416036   -1.279160
O       0.529312   -1.739753   -1.697885
C       1.031537    0.494660   -2.457376
C       2.197493    0.024677   -1.607853
O       2.880503    0.905751   -0.762281
H       1.069587    1.892636    0.345264
H      -0.459780    2.078133   -0.536446
H      -0.481217    1.729575    1.189814
H       0.059255   -0.516209    2.105978
H       0.601408   -1.823609    1.061236
H       1.662910   -0.429712    1.352606
H      -1.912061    0.090719   -1.050814
H      -1.555984   -1.492850   -0.357446
H      -2.037435   -0.149224    0.699806
H       0.938348   -2.336359   -1.061111
H       0.914493    0.067502   -3.446757
H       0.741770    1.534095   -2.358932
H       2.819665   -0.758093   -2.042246
H       3.369673    1.527337   -1.311913
