26

C       0.011410    1.584783   -0.055213
C       0.034315    0.056350    0.041110
C      -1.370728   -0.558376    0.043199
C      -1.410965   -2.098089    0.064286
C      -0.861963   -2.680506    1.373722
C      -2.843022   -2.577667   -0.220150
N      -2.930815   -4.028732   -0.365909
C      -3.418305   -4.787669    0.782258
C      -4.278539   -4.584670   -0.413613
H       1.023833    2.000816   -0.059150
H      -0.488981    1.916838   -0.971868
H      -0.526368    2.026720    0.791198
H       0.605922   -0.355175   -0.801417
H       0.575330   -0.237922    0.948043
H      -1.934136   -0.169775    0.904445
H      -1.904495   -0.203100   -0.849422
H      -0.787233   -2.469084   -0.760772
H       0.169508   -2.364340    1.553185
H      -1.463286   -2.352813    2.231326
H      -0.871392   -3.772941    1.351608
H      -3.525174   -2.202996    0.567931
H      -3.180364   -2.135754   -1.165923
H      -2.934362   -5.743866    0.961217
H      -3.682943   -4.235691    1.683016
H      -5.117957   -3.898244   -0.309369
H      -4.435155   -5.388175   -1.127999
