20

C      -0.014690    1.507412    0.042383
C      -0.010904   -0.001270    0.036813
C       1.293848   -0.737814   -0.241629
C       0.656787   -0.805667    1.127165
O       1.261427   -0.134077    2.193541
C      -0.207883   -2.016884    1.445188
C      -1.122762   -2.173664    0.210853
C      -1.286354   -0.741737   -0.353874
H       0.888412    1.895876    0.520411
H      -0.066567    1.911400   -0.975310
H      -0.876705    1.895035    0.597895
H       1.308205   -1.612278   -0.885334
H       2.176930   -0.111403   -0.316196
H       2.062629   -0.612315    2.431716
H       0.370990   -2.923915    1.656181
H      -0.791405   -1.783955    2.343910
H      -0.645790   -2.821104   -0.531838
H      -2.081836   -2.635829    0.458220
H      -2.141102   -0.239590    0.117649
H      -1.471502   -0.740354   -1.434108
