25

C      -0.044081    1.573970   -0.000225
C       0.003914    0.043649   -0.022090
C       0.728518   -0.487057   -1.271272
C       0.666250   -2.018654   -1.360260
C       1.082520   -2.717334   -0.067279
C       2.560787   -2.760128    0.415972
C       2.031857   -2.628493    1.871489
C       0.706655   -2.051391    1.294520
C       0.693255   -0.513759    1.234746
H       0.967582    1.996996    0.021804
H      -0.549320    1.970243   -0.887639
H      -0.576362    1.943821    0.882842
H      -1.031153   -0.331835   -0.045981
H       0.291432   -0.049607   -2.176891
H       1.773881   -0.147460   -1.240986
H      -0.368446   -2.306166   -1.593151
H       1.277145   -2.379298   -2.197803
H       0.700787   -3.744517   -0.075382
H       3.147832   -3.646465    0.161958
H       3.125281   -1.875423    0.106306
H       1.884246   -3.608752    2.333858
H       2.591624   -1.995982    2.566274
H      -0.220920   -2.411860    1.750495
H       1.724106   -0.131827    1.244064
H       0.219413   -0.116575    2.140855
