18

C       0.018596    1.541042   -0.198882
C      -0.005530    0.045691    0.027221
C       1.270231   -0.785500   -0.038940
C       0.548732   -0.571823    1.266199
C       1.162928    0.172954    2.457055
O       0.910803   -0.684484    3.567935
C       0.521879   -1.927521    3.028038
O      -0.167084   -1.646604    1.834707
H       0.931095    1.995228    0.201851
H      -0.019183    1.773505   -1.268434
H      -0.835174    2.032269    0.280464
H      -0.890734   -0.459419   -0.350814
H       1.209912   -1.770304   -0.488474
H       2.210901   -0.264083   -0.194862
H       2.240691    0.335844    2.323630
H       0.683501    1.137549    2.655655
H       1.406887   -2.559150    2.826899
H      -0.154439   -2.429270    3.725156
