19

C      -0.028183    1.551761    0.172761
C       1.473021    1.619014   -0.331086
C       1.249726    0.188046   -0.851724
O       0.357907    0.183166   -2.039260
C      -0.127639   -0.883024   -1.181171
C       1.358242   -1.369930   -0.879314
C       1.413371   -1.898488    0.547963
C       0.474103   -0.877290    1.273138
C       0.049400   -0.010920    0.097926
H      -0.221137    1.958527    1.167014
H      -0.720774    1.991254   -0.543081
H       1.737957    2.371984   -1.076625
H       2.183240    1.659115    0.498779
H      -0.962965   -1.491380   -1.545499
H       1.906943   -1.877450   -1.673643
H       1.043117   -2.926833    0.604593
H       2.427826   -1.895115    0.957974
H      -0.368912   -1.365393    1.772927
H       1.008150   -0.301557    2.036727
