19

C      -0.014091    1.443071   -0.072555
O       0.172637    0.045662    0.086180
C       0.611727   -0.619530   -1.066712
C       1.163192   -2.007670   -0.735290
C       1.040341   -2.793913   -2.047375
O       1.113194   -4.179020   -1.765687
C      -0.306847   -2.328561   -2.632874
C      -0.501145   -0.905630   -2.106159
O      -1.379165   -0.142692   -2.416838
H       0.918397    1.930817   -0.398239
H      -0.804602    1.667469   -0.794898
H      -0.291721    1.834293    0.909013
H       1.382416   -0.021624   -1.590972
H       2.180935   -1.989440   -0.342477
H       0.515154   -2.474832    0.014976
H       1.856638   -2.498112   -2.725993
H       1.104219   -4.658403   -2.600143
H      -0.392832   -2.375409   -3.721699
H      -1.106789   -2.950127   -2.209068
