19

C      -0.039688    1.558589   -0.029538
C       1.494197    1.878938   -0.019742
C       2.020800    0.456814    0.036534
C       3.399595   -0.166000    0.076779
O       3.045019   -1.566951    0.120367
C       1.615221   -1.540004    0.100009
C       1.113185   -0.396436    1.002092
C      -0.014022    0.017307    0.024073
C       1.138920   -0.461879   -0.892119
H      -0.559429    1.991930    0.831009
H      -0.535435    1.930989   -0.931764
H       1.817439    2.415300   -0.917604
H       1.793426    2.476229    0.847458
H       4.005734    0.038180   -0.814519
H       3.981533    0.099762    0.967971
H       1.226194   -2.556723    0.129849
H       1.116812   -0.341831    2.092926
H      -0.970881   -0.507724    0.029211
H       1.172186   -0.482656   -1.983621
