19

C      -0.175849    1.597447   -0.017970
C       0.025154    0.091201    0.021657
C       1.201273   -0.602000   -0.747678
C       2.170318   -0.072602    0.348274
C       0.918752   -0.590656    1.113511
C       0.964315   -1.852407    0.176042
N      -0.266328   -2.607185   -0.006173
C       2.112508   -2.755251    0.355835
N       2.954356   -3.538522    0.488397
H       0.738778    2.179797    0.115098
H      -0.616970    1.890612   -0.976987
H      -0.877766    1.901764    0.766230
H      -0.927977   -0.416738   -0.119896
H       1.370916   -0.641644   -1.825059
H       3.103313   -0.619608    0.493218
H       2.346061    1.000414    0.368442
H       0.760953   -0.617134    2.193096
H      -0.180651   -3.220059   -0.812144
H      -0.424723   -3.210358    0.796096
