20

C       0.151993    1.398092    0.043521
N       0.041474   -0.041482   -0.143584
C      -1.067732   -0.596988    0.099470
C      -1.257681   -2.083437   -0.098444
C      -2.168740   -2.714049    0.940013
C      -2.214517   -2.174483    2.351267
C      -3.326637   -1.863493    1.380724
C      -3.408412   -0.497404    0.736467
O      -2.131067    0.126155    0.571598
H       1.102588    1.738954   -0.374545
H      -0.664778    1.952119   -0.436752
H       0.135481    1.664907    1.108737
H      -1.693003   -2.251130   -1.094376
H      -0.262348   -2.532388   -0.111603
H      -2.334727   -3.779135    0.813329
H      -2.428789   -2.873789    3.151381
H      -1.530880   -1.378507    2.625680
H      -4.293278   -2.331388    1.541283
H      -3.906355   -0.572627   -0.241476
H      -3.984033    0.204165    1.348048
