23

C       0.013879    1.587788    0.035074
C       0.028978    0.054132   -0.019695
C      -1.353441   -0.551601   -0.002196
C      -2.275879   -0.438847    1.250061
C      -2.917860   -1.735381    0.771352
C      -2.961076   -1.680934   -0.768450
C      -2.344616   -0.352415   -1.189488
C      -1.706812   -2.113558   -0.047484
C      -0.868291   -3.347158   -0.114571
H       1.030304    1.992849    0.020773
H      -0.525512    2.009578   -0.819528
H      -0.475730    1.947005    0.946359
H       0.557754   -0.273235   -0.925045
H       0.607196   -0.335393    0.829050
H      -1.712525   -0.589809    2.176755
H      -2.896915    0.460564    1.342793
H      -3.575036   -2.401024    1.317889
H      -3.649104   -2.307662   -1.322972
H      -2.968184    0.550004   -1.183269
H      -1.834551   -0.436243   -2.154742
H      -0.246705   -3.369919   -1.017802
H      -0.198674   -3.433462    0.749652
H      -1.500999   -4.241941   -0.129560
