22

C      -0.018897    1.512824    0.161921
C       0.023101    0.006965   -0.018225
C       1.165920   -0.567459   -0.825509
C       1.136398   -0.757401    0.670572
C      -1.313407   -0.658373   -0.099337
C      -1.591750   -2.144579   -0.414450
C      -2.918358   -1.717967   -1.126931
C      -2.608721   -0.261131   -0.768387
N      -2.426977   -0.105666    0.672247
H       0.994177    1.919758    0.236858
H      -0.510994    1.997705   -0.689078
H      -0.574018    1.782558    1.063415
H       0.988646   -1.433400   -1.453301
H       1.881674    0.134669   -1.239754
H       1.836534   -0.195516    1.279564
H       0.918392   -1.750697    1.048749
H      -0.883239   -2.597823   -1.110780
H      -1.681157   -2.796255    0.461726
H      -2.890874   -1.917868   -2.200840
H      -3.855208   -2.116253   -0.721680
H      -2.869637    0.619609   -1.344984
H      -2.930398   -0.808907    1.211595
