17

C       0.754470    0.462205   -0.446826
O       1.004923    0.323849    0.936900
C       0.039278   -0.476232    1.608827
C       0.129784   -1.924067    1.270258
C      -0.765973   -2.844712    0.804422
N      -0.185729   -4.097165    0.679347
C       1.051142   -3.917142    1.059908
O       2.024455   -4.841668    1.097695
N       1.314644   -2.643872    1.440122
H      -0.203454    0.973074   -0.631938
H       1.563877    1.068951   -0.859511
H       0.731162   -0.507686   -0.962405
H       0.233785   -0.304606    2.674572
H      -0.983434   -0.128532    1.397135
H      -1.805752   -2.685491    0.561212
H       1.626523   -5.662590    0.781178
H       2.211178   -2.266899    1.698069
