18

O      -0.161226    1.410893   -0.000090
C      -0.038388   -0.001244    0.013937
C       0.419576   -0.603770    1.392605
N      -0.769127   -1.391025    1.828214
C      -1.109396   -2.062086    0.505181
C      -1.428340   -0.643029   -0.015264
C      -1.875485   -0.389129    1.462312
C      -3.206991   -0.829750    1.825879
C      -4.325754   -1.157395    2.119501
H       0.718595    1.792598    0.074919
H       0.583132   -0.343575   -0.825171
H       1.285070   -1.266789    1.314343
H       0.639181    0.187816    2.114688
H      -0.286079   -2.621807    0.051418
H      -1.987136   -2.697835    0.619458
H      -2.065238   -0.430553   -0.873630
H      -1.689985    0.617440    1.845475
H      -5.310219   -1.451590    2.387753
