22

C       0.052129    1.528268    0.082637
C       0.028575    0.009178    0.003641
C       0.699974   -0.533065   -1.268276
C       0.954964   -2.029267   -1.165515
N       2.173635   -2.428574   -0.432287
C       0.856605   -2.695697    0.160885
C       0.492917   -1.871545    1.385780
C       1.321052   -2.250908    2.606133
O       0.686230   -0.483510    1.164105
H       1.085446    1.887343    0.113161
H      -0.442775    1.968062   -0.788872
H      -0.457647    1.874060    0.985835
H      -1.019891   -0.340086    0.018875
H       0.059068   -0.320466   -2.131369
H       1.652035   -0.014751   -1.427131
H       0.691813   -2.621512   -2.038798
H       2.556196   -3.282530   -0.829083
H       0.504668   -3.725650    0.192407
H      -0.578622   -2.054121    1.591651
H       2.382358   -2.113104    2.384798
H       1.051866   -1.619956    3.457299
H       1.149438   -3.297095    2.878793
