23

C      -0.235647    1.730284    0.267024
C      -0.032056    0.214906    0.374770
C      -1.202205   -0.592467   -0.190328
C      -1.462770   -0.423753   -1.696933
O      -2.159959   -1.593620   -2.122687
C      -2.138375   -2.584376   -1.091893
C      -1.915478   -3.952169   -1.719798
C      -1.066655   -2.119328   -0.086549
O       0.254589   -2.468126   -0.476136
H       0.605568    2.271556    0.710839
H      -0.320315    2.052864   -0.776117
H      -1.146847    2.048755    0.786368
H       0.885413   -0.080307   -0.143385
H       0.110069   -0.058816    1.427723
H      -2.119088   -0.319113    0.349466
H      -2.073705    0.455520   -1.928430
H      -0.514202   -0.337790   -2.246653
H      -3.110863   -2.583168   -0.570040
H      -0.950747   -3.985381   -2.233733
H      -1.952499   -4.743711   -0.962291
H      -2.695732   -4.155845   -2.457632
H      -1.283635   -2.487530    0.926816
H       0.329562   -3.426857   -0.466552
