16

C       0.018389    1.496919    0.003940
C      -0.024704   -0.002200   -0.001890
C      -1.181900   -0.703677   -0.098813
C      -1.193370   -2.150938   -0.101798
N      -2.258303   -2.856521   -0.191435
N       0.114745   -2.684824    0.006252
C       1.215444   -1.900801    0.097992
O       2.356773   -2.599278    0.191591
N       1.220787   -0.611266    0.100195
H       0.634728    1.859396   -0.826047
H      -0.979807    1.930924   -0.078646
H       0.488661    1.856758    0.925663
H      -2.142125   -0.212423   -0.177825
H      -2.056384   -3.857047   -0.176139
H       0.239400   -3.686984    0.014885
H       3.063289   -1.940710    0.251303
