17

O       0.219009    1.343961   -0.081636
C       0.033192   -0.022665   -0.016429
C      -0.455888   -0.695783    1.241636
O      -0.804173    0.178232    2.277697
C      -2.176107    0.188965    2.633359
C      -3.060108    0.544431    1.454981
O      -2.515268    1.508657    0.547403
C      -2.610278    0.130301    0.118920
C      -1.346686   -0.666772    0.003039
H      -0.504450    1.752909    0.415475
H       0.793986   -0.543779   -0.589022
H      -0.023420   -1.637221    1.577127
H      -2.501443   -0.781934    3.041716
H      -2.268027    0.938160    3.425959
H      -4.122153    0.659032    1.668077
H      -3.347503   -0.024728   -0.665991
H      -1.466391   -1.591367   -0.553498
