22

C      -0.068879    1.505477   -0.050099
C       0.078457   -0.021050    0.000036
C       0.759289   -0.587584   -1.255179
N       0.741862   -0.469600    1.240297
C       0.038250   -1.353366    2.167522
C       0.148049   -2.839214    1.802017
O       1.474621   -3.245376    1.550009
C       2.055044   -0.232714    1.470864
O       2.706431   -0.721170    2.384036
H       0.905125    2.000370   -0.116806
H      -0.651357    1.800333   -0.928554
H      -0.578384    1.878128    0.842920
H      -0.927151   -0.450438    0.051628
H       1.743120   -0.135013   -1.414591
H       0.896749   -1.668151   -1.164390
H       0.152015   -0.381151   -2.141950
H       0.479400   -1.192322    3.154814
H      -1.014859   -1.055507    2.213870
H      -0.315163   -3.419494    2.618357
H      -0.428695   -3.054050    0.892509
H       2.061905   -2.712275    2.105512
H       2.502648    0.473875    0.750994
