19

C      -0.020666    1.610682   -0.083487
C      -0.018897    0.070870   -0.061094
C      -1.444885   -0.523352    0.003906
N      -2.093949   -0.137220    1.248221
C      -3.507902   -0.522165    1.295836
C      -4.087624   -0.257550    2.607612
C      -4.552086   -0.060905    3.697731
C       0.690136   -0.473396   -1.223102
N       1.236814   -0.899806   -2.147867
H       0.997259    2.004604   -0.038141
H      -0.490134    1.980064   -0.999808
H      -0.590585    1.976274    0.772147
H       0.527391   -0.268719    0.829916
H      -2.032855   -0.120379   -0.829882
H      -1.392982   -1.615808   -0.145335
H      -1.615498   -0.562890    2.036683
H      -4.043820    0.057357    0.532199
H      -3.670904   -1.586332    1.041412
H      -4.971056    0.120467    4.656583
