20

C      -0.322836    1.742530    0.118082
C      -0.382263    0.214513    0.184121
C       0.634938   -0.492118    1.081482
C       2.017503    0.074993    1.281422
C       1.027820    0.090030    2.421317
C       0.437013   -1.979785    1.041640
O       0.798309   -2.667448   -0.165074
C       1.503525   -2.988812    1.032440
H       0.625621    2.099325   -0.294547
H      -1.119419    2.117370   -0.531677
H      -0.460775    2.205987    1.100172
H      -1.386838   -0.086194    0.513518
H      -0.264807   -0.192903   -0.827660
H       2.863525   -0.598695    1.345267
H       2.251303    1.019243    0.803701
H       0.603732    1.041200    2.722498
H       1.190222   -0.601127    3.242015
H      -0.532310   -2.299778    1.433663
H       2.549075   -2.689269    1.051126
H       1.304368   -3.978073    1.444714
