20

C      -0.228547    0.571504    0.370591
O       0.932487    0.392423   -0.420115
C       0.725582   -0.419093   -1.558861
C       0.539413   -1.879313   -1.253896
N       1.589189   -2.644739   -0.532115
C       1.160690   -3.084158   -1.880783
C      -0.093428   -3.928174   -1.663638
C      -0.744503   -2.682674   -0.946252
O      -1.087487   -2.801537    0.407499
H      -1.030480    1.061235   -0.204960
H      -0.614487   -0.377783    0.764614
H       0.052030    1.221192    1.203031
H      -0.135114   -0.054091   -2.144914
H       1.623938   -0.292244   -2.175311
H       2.458418   -2.119195   -0.615558
H       1.871660   -3.131622   -2.696948
H      -0.609525   -4.193288   -2.589195
H       0.033520   -4.816701   -1.040516
H      -1.625199   -2.309228   -1.474151
H      -0.254041   -2.997935    0.859556
