19

O      -0.090727    1.478012   -0.280664
C      -0.031662    0.082023   -0.060300
C      -1.403004   -0.556539    0.037603
C      -2.036375   -1.161292   -1.181361
C      -1.523220   -2.056423   -0.070046
O      -2.320676    0.105571    0.864287
C      -1.937654    0.221462    2.217593
C      -3.138805    0.730231    2.994933
O      -3.138118    0.901677    4.184485
H      -0.723500    1.637640   -0.989103
H       0.539605   -0.440932   -0.843963
H       0.524502   -0.045145    0.875472
H      -3.110507   -1.051051   -1.272518
H      -1.489827   -1.134584   -2.118040
H      -0.627796   -2.643348   -0.245505
H      -2.264621   -2.532186    0.561487
H      -1.623485   -0.744357    2.643115
H      -1.109525    0.933122    2.349927
H      -4.028355    0.933218    2.358382
