14

N       0.110834    1.381263    0.006819
C      -0.054474    0.049784    0.000678
C      -1.121516   -0.793120    0.002757
C      -0.595017   -2.204859   -0.008031
O       0.840930   -2.079602   -0.016202
C       1.193533   -0.779620   -0.011580
O       2.322118   -0.367492   -0.016045
C      -2.534401   -0.497857    0.013067
O      -3.404084   -1.348905    0.013679
H       1.058547    1.725944    0.002747
H      -0.652962    2.032036    0.015044
H      -0.884177   -2.780125    0.877239
H      -0.895097   -2.770665   -0.895760
H      -2.798941    0.584378    0.020316
