19

C       0.010748    1.577382    0.020700
O       1.377268    1.976978   -0.141906
C       2.173078    0.837748   -0.337769
O       2.683012    0.304579    0.893007
C       1.948992   -0.905019    1.145520
C       0.478237   -0.543009    1.420685
C       0.027499    0.047599    0.043496
C       1.253143   -0.285847   -0.862994
C       1.873843   -1.543892   -0.248748
H      -0.388876    2.013625    0.942988
H      -0.575775    1.964753   -0.823524
H       3.022047    1.139051   -0.955623
H       2.459971   -1.455013    1.935468
H      -0.098792   -1.434344    1.686712
H       0.386414    0.178487    2.236405
H      -0.913288   -0.378849   -0.308397
H       1.071047   -0.260249   -1.936867
H       2.858934   -1.789464   -0.653085
H       1.225143   -2.422899   -0.298117
