14

C      -0.116271    1.468167   -0.073133
C       1.275028    0.950388    0.112840
C       0.116167   -0.030559    0.033271
C      -0.314196   -0.758515    1.226217
C      -0.807816   -2.018861    1.411218
N      -1.042294   -2.166628    2.754705
N      -0.741167   -1.128847    3.386960
O      -0.251278   -0.162181    2.414955
H      -0.595546    1.948532    0.771599
H      -0.407165    1.851830   -1.044105
H       1.958676    0.971365   -0.727867
H       1.738587    1.079868    1.083600
H       0.023418   -0.607592   -0.879386
H      -1.005285   -2.804382    0.702766
