15

N      -0.026950   -1.156975   -0.025392
C      -0.013237    0.002090   -0.016790
C       0.001589    1.415523   -0.005975
C      -1.072082    2.283333    0.121244
C      -2.516985    2.713914    0.286564
C      -1.934683    4.180767    0.234866
N      -0.609019    3.550658    0.080860
C       0.753193    3.591186   -0.070373
C       1.156004    2.272146   -0.127064
H      -3.189309    2.461679   -0.536485
H      -2.991620    2.445590    1.233017
H      -2.238051    4.780087   -0.626850
H      -2.039019    4.763697    1.153057
H       1.317430    4.506907   -0.125144
H       2.171254    1.926260   -0.243381
