19

C       0.136829   -1.129239   -0.463975
C       0.025191    0.047588   -0.228151
C      -0.044349    1.430764    0.064370
C      -1.119231    2.223709   -0.066379
C      -0.851619    3.637284    0.372247
C       0.669695    3.654611    0.587525
C       1.513547    4.704065   -0.092161
C       1.338789    4.722116    1.407957
C       1.144871    2.196077    0.624911
H       0.217683   -2.166268   -0.676113
H      -2.086671    1.887247   -0.419967
H      -1.178912    4.376501   -0.369975
H      -1.404091    3.867174    1.296166
H       2.478231    4.405451   -0.490427
H       1.008320    5.468390   -0.674504
H       0.716870    5.499382    1.841134
H       2.185550    4.437899    2.024872
H       1.366587    1.853907    1.645222
H       2.053754    2.030976    0.035496
