20

C       0.021423    1.528982    0.055872
C       0.036831    0.009573   -0.012145
C       0.776571   -0.534484   -1.240560
C       1.034633   -2.019208   -1.118866
C       1.410819   -2.753608   -2.374874
C       0.922777   -2.612957    0.069463
C       0.586392   -1.860124    1.326740
O       0.659814   -0.456344    1.178897
H       1.043393    1.914753    0.125761
H      -0.448975    1.950115   -0.837949
H      -0.532774    1.867590    0.935271
H      -1.001874   -0.364999   -0.042626
H       0.184521   -0.330533   -2.143220
H       1.726343    0.004561   -1.371804
H       2.315464   -2.325186   -2.826159
H       1.597257   -3.814066   -2.184283
H       0.620439   -2.674770   -3.132743
H       1.076030   -3.684877    0.173696
H      -0.417582   -2.157702    1.685827
H       1.291715   -2.117825    2.126573
