23

C       0.081653    1.452366    0.081660
C      -0.047811   -0.072836    0.121264
C      -1.498248   -0.520703    0.044253
O      -1.519558   -1.959585    0.089398
C      -2.738776   -2.535766    0.028382
O      -3.767144   -1.909256   -0.042334
C      -2.621793   -4.053079    0.033874
C      -3.956561   -4.699086    0.410555
C      -2.116121   -4.529028   -1.342973
H       1.130311    1.757215    0.138063
H      -0.335539    1.864526   -0.843545
H      -0.446409    1.919618    0.919948
H       0.506989   -0.521846   -0.710665
H       0.396673   -0.467080    1.042362
H      -2.089624   -0.128270    0.878778
H      -1.979398   -0.183712   -0.880570
H      -1.858208   -4.309503    0.777493
H      -4.736132   -4.414553   -0.301005
H      -3.863658   -5.789344    0.409598
H      -4.286873   -4.382739    1.403722
H      -1.157304   -4.067861   -1.592301
H      -1.987012   -5.615450   -1.342255
H      -2.835985   -4.275765   -2.128587
