15

O      -0.025027   -0.046416   -0.026294
C       0.025910    1.151986    0.009675
C       1.287492    1.967871   -0.002747
O       2.487771    1.203258   -0.063685
C       3.367203    2.339361   -0.053983
C       2.800494    3.131469   -1.260782
C       1.491510    2.913098   -1.230322
C       2.876217    3.051588    1.233168
C       1.567428    2.832857    1.268423
H      -0.894904    1.780598    0.057121
H       4.411364    2.035745   -0.095404
H       3.376507    3.764622   -1.919806
H       0.700346    3.311027   -1.848442
H       3.492392    3.642386    1.895193
H       0.815958    3.188660    1.957661
