22

C      -0.057014    1.610395   -0.032186
C       0.024834    0.087540   -0.110439
C       0.435396   -0.837666   -1.210439
C       1.549695   -0.553679   -2.225961
C       2.651636   -1.479986   -1.588024
C       2.536614   -0.407630   -0.458234
C       2.332795    0.637915   -1.600715
C       3.579796    1.130778   -2.333774
N       1.198047   -0.803042    0.085756
H      -0.164511    2.088533   -1.009435
H      -0.935350    1.885357    0.559129
H       0.812667    2.046601    0.467083
H      -0.788050   -0.356677    0.464316
H      -0.175299   -1.720206   -1.397162
H       1.290387   -0.591132   -3.284731
H       2.353331   -2.493150   -1.310583
H       3.600411   -1.496196   -2.122044
H       3.285430   -0.284559    0.324900
H       1.746054    1.514990   -1.354976
H       4.259026    0.336439   -2.649761
H       3.293719    1.693380   -3.229679
H       4.149190    1.812191   -1.691485
