20

C      -0.101933    1.547561   -0.203625
C       0.021724    0.063422    0.064419
O       0.892645   -0.651771   -0.856534
C       1.336196   -1.523263    0.219189
C       2.847183   -1.639017    0.424318
N       3.286311   -0.555440    1.327594
C       3.023094    0.779482    0.782799
C       2.064358    0.180835    1.755465
C       0.803790   -0.520949    1.268967
H       0.842109    2.077165   -0.069616
H      -0.449301    1.709699   -1.229288
H      -0.843673    1.983810    0.474322
H      -0.981072   -0.390481    0.027347
H       0.834298   -2.496763    0.156520
H       3.072817   -2.594154    0.911959
H       3.393753   -1.605064   -0.523464
H       3.708323    1.552201    1.122926
H       2.731592    0.848433   -0.259536
H       2.071749    0.539044    2.780615
H       0.206092   -0.895080    2.101715
