18

C      -0.013464    1.423052    0.445006
C       0.127718   -0.042855    0.120361
O      -1.047678   -0.705341   -0.267859
C       1.425730   -0.572611   -0.474429
O       2.511204    0.280410   -0.647859
C       1.026482   -0.952564    0.931051
O       1.877097   -0.414384    1.910769
C       1.338237   -0.193127    3.136317
N       2.061060    0.280002    4.052409
H       0.946238    1.862574    0.720051
H      -0.385074    1.964330   -0.432658
H      -0.725682    1.574355    1.262244
H      -1.274331   -0.407979   -1.156902
H       1.338574   -1.342138   -1.238594
H       3.015734    0.280810    0.175536
H       0.676566   -1.962296    1.128320
H       0.278868   -0.470425    3.195979
H       1.519247    0.382910    4.907842
