21

C      -0.041779    1.538611    0.004176
C       0.048483    0.008949    0.013931
C       0.685889   -0.529470   -1.275069
O       0.848840   -1.932700   -1.220714
C       1.853208   -2.318075   -0.298382
C       1.679150   -1.718987    1.101949
O       1.599448   -2.654233    2.146903
C       2.282605   -0.368834    1.409819
C       0.781431   -0.525255    1.235675
H       0.955075    1.992268   -0.022625
H      -0.599804    1.898043   -0.867422
H      -0.548929    1.907516    0.901250
H      -0.968845   -0.402565    0.048015
H       0.036064   -0.324189   -2.131117
H       1.654020   -0.033625   -1.469929
H       1.782132   -3.405140   -0.210086
H       2.846273   -2.065265   -0.708609
H       2.490284   -2.973453    2.328337
H       2.642909   -0.204559    2.419396
H       2.860387    0.126509    0.634808
H       0.216878   -0.493718    2.163082
