19

C      -0.078897    1.615258   -0.041687
C       1.422610    1.272295   -0.025720
C       1.239362    0.117892    1.000514
C      -0.048568    0.077449    0.052520
C       1.204997   -0.040898   -0.887153
C       1.821881   -0.285913   -2.237585
C       3.301407   -0.549684   -1.756545
O       3.314277   -0.759287   -0.321219
C       1.966776   -0.895154    0.091591
H      -0.465131    2.148535    0.832722
H      -0.486387    2.042939   -0.963255
H       2.282325    1.938258   -0.088159
H       1.216078    0.209976    2.087650
H      -0.876443   -0.629057    0.124302
H       1.406848   -1.174777   -2.723458
H       1.768842    0.548971   -2.940640
H       3.725605   -1.429185   -2.255608
H       3.948087    0.308048   -1.969324
H       1.682434   -1.950614    0.208987
