15

C      -0.005556    1.410774   -0.206726
N       0.012748   -0.038321   -0.210977
C      -1.068383   -0.652404    0.065405
N      -2.289043   -0.064622    0.377665
N      -3.470986   -0.684407    0.679810
C      -3.439549   -1.964082    0.671284
N      -2.312835   -2.705753    0.382772
C      -1.071816   -2.161137    0.066319
O      -0.117074   -2.854308   -0.177317
H       0.987515    1.786508   -0.462073
H      -0.716243    1.824800   -0.941461
H      -0.273967    1.824922    0.779506
H      -2.355207    0.939285    0.394837
H      -4.344711   -2.510479    0.902718
H      -2.351087   -3.715698    0.392637
