20

C      -0.219092    1.622034   -0.055885
C       0.040043    0.107021    0.034073
C       0.787041   -0.419482   -1.151208
C       2.045495   -0.870525   -1.271002
C       3.117066   -0.994812   -0.237193
C       2.307635   -1.286850   -2.703695
N       1.054676   -0.993255   -3.353958
C       0.108077   -0.503868   -2.484721
O      -1.040063   -0.208927   -2.756516
H       0.721189    2.182190   -0.083679
H      -0.785298    1.852756   -0.961344
H      -0.795181    1.966862    0.808253
H       0.577317   -0.128747    0.958699
H      -0.927035   -0.407629    0.083588
H       3.467572   -2.031070   -0.152027
H       3.992934   -0.388714   -0.501069
H       2.770836   -0.673311    0.747285
H       3.146578   -0.721965   -3.137329
H       2.572255   -2.353393   -2.765882
H       0.840870   -1.203033   -4.313512
