16

C       0.024164    1.505367   -0.036159
C       0.031040    0.016273    0.048229
C      -0.867145   -0.850772    0.864547
C       0.646451   -0.984845    1.043986
C       1.205814   -1.656585   -0.211328
O       0.521318   -0.717061   -1.078092
C       1.323133   -0.803079    2.276600
C       1.910342   -0.653804    3.317438
H       1.009066    1.883582   -0.324577
H      -0.704461    1.840310   -0.783180
H      -0.252193    1.939847    0.928279
H      -1.363912   -0.367923    1.699357
H      -1.423075   -1.654590    0.388688
H       2.291260   -1.550950   -0.305285
H       0.909146   -2.694820   -0.399973
H       2.425666   -0.521943    4.236103
