23

C       0.039180    1.518407    0.078112
C       0.050908   -0.000333   -0.009186
C       0.783868   -0.531425   -1.246385
C       1.036175   -2.017343   -1.136985
C       1.407438   -2.742777   -2.399887
C       0.921724   -2.623201    0.045233
C       0.598944   -1.892669    1.324119
C       1.549582   -2.267997    2.459591
O       0.677726   -0.483010    1.171664
H       1.062259    1.901330    0.147726
H      -0.435118    1.952553   -0.807461
H      -0.509655    1.846707    0.964790
H      -0.988874   -0.371432   -0.039971
H       0.189898   -0.318072   -2.145672
H       1.735103    0.005536   -1.375541
H       2.314261   -2.315189   -2.847592
H       1.588042   -3.805896   -2.218860
H       0.617104   -2.652427   -3.156491
H       1.069733   -3.697726    0.131919
H      -0.430528   -2.161024    1.633438
H       2.581433   -2.034311    2.182168
H       1.294949   -1.706137    3.362320
H       1.479651   -3.337071    2.681913
