21

C       0.065905    1.586809   -0.449814
C       0.119206    0.086604   -0.188482
C       1.063081   -0.827022   -0.972566
C       2.410696   -0.877499   -0.217828
C       2.282817   -0.000404    1.025055
C       0.810212   -0.490456    1.088901
C       1.249595   -1.739411    0.211262
C       1.099008   -3.212513    0.374326
O       1.707564   -3.834403   -0.750846
H       1.060880    2.040175   -0.457148
H      -0.392428    1.790018   -1.424286
H      -0.534985    2.099688    0.310354
H      -0.893458   -0.331351   -0.243621
H       1.009813   -1.117234   -2.014238
H       3.309243   -1.203665   -0.724916
H       2.867418   -0.411221    1.853679
H       2.468593    1.077042    0.955476
H       0.274908   -0.523475    2.037064
H       1.574766   -3.540786    1.314407
H       0.030458   -3.479170    0.445483
H       1.619734   -4.786382   -0.647699
