15

C       0.322787    1.451301   -0.031970
C      -0.068433   -0.007256    0.117962
O      -0.312340   -0.501556    1.194539
C      -0.107976   -0.815905   -1.167484
C       1.263446   -1.414254   -1.604857
O       0.769600   -2.753708   -1.473105
C      -0.533183   -2.289799   -1.049872
H       1.242234    1.550182   -0.620021
H      -0.460893    1.989146   -0.578691
H       0.457163    1.906263    0.949829
H      -0.599155   -0.244539   -1.958746
H       1.569983   -1.179251   -2.631530
H       2.102415   -1.212033   -0.925763
H      -0.770965   -2.599284   -0.027656
H      -1.323699   -2.612841   -1.736467
