16

C      -0.009165    1.464853   -0.013836
N      -0.014918    0.020857    0.028336
C      -0.076415   -0.833665   -1.053195
N      -0.069005   -2.116591   -0.734570
C       0.001929   -2.080115    0.625783
C       0.037288   -0.794623    1.143569
C       0.105472   -0.870913    2.560616
C       0.108805   -2.225066    2.843074
N       0.047048   -2.963843    1.672954
H       0.905993    1.867311    0.433689
H      -0.060011    1.791755   -1.054541
H      -0.870003    1.877025    0.523638
H      -0.124486   -0.444761   -2.060107
H       0.148094   -0.078361    3.290280
H       0.153027   -2.723860    3.798002
H       0.036292   -3.966105    1.612520
