15

O      -1.000938    1.392575    0.046733
C       0.112484    0.970686    0.255837
C       1.344031    1.750254   -0.005219
C       1.241558    3.292327   -0.082758
C       1.573875    2.549712   -1.306704
O       2.912028    2.453620   -1.700478
C       3.683431    1.856426   -0.664586
C       2.693866    1.207130    0.317082
O       2.965825    0.368845    1.138845
H       0.288964   -0.047790    0.655510
H       0.218199    3.635403    0.027121
H       2.005434    3.875788    0.418590
H       0.875212    2.472499   -2.131279
H       4.348174    1.103430   -1.097229
H       4.302176    2.598657   -0.140484
