19

C      -0.079690    1.482518   -0.081301
C       0.052325   -0.029501   -0.045200
O       0.815160   -0.478914   -1.163573
C       1.673984   -1.555384   -0.789594
C       1.265898   -1.957610    0.631627
C       0.775449   -0.607737    1.201306
O       1.886076    0.243528    1.486250
C      -0.097823   -0.737852    2.365487
C      -0.791300   -0.844697    3.341953
H       0.901937    1.952412   -0.009066
H      -0.553680    1.786963   -1.018118
H      -0.701037    1.827751    0.750725
H      -0.948205   -0.488332   -0.077529
H       1.560913   -2.375732   -1.507003
H       2.716063   -1.212388   -0.815979
H       0.442321   -2.677498    0.622949
H       2.085442   -2.376204    1.220683
H       2.266962   -0.045740    2.321939
H      -1.410676   -0.934181    4.200299
