20

N      -0.089444    1.292998   -0.299333
C      -0.110318    0.031592   -0.327189
O      -1.131619   -0.637356    0.252186
C      -1.028515   -2.040389    0.273046
C      -1.167293   -2.810591   -1.015281
C      -2.261162   -2.867089    0.037898
C      -2.248157   -4.025752    1.023819
C      -0.781124   -4.104580    1.515954
C      -0.239844   -2.661086    1.416138
H       0.733918    1.634619   -0.790917
H       0.628943   -0.628960   -0.797940
H      -1.395797   -2.227217   -1.900309
H      -0.537422   -3.675595   -1.197954
H      -3.197197   -2.375058   -0.199148
H      -2.921084   -3.792702    1.857323
H      -2.588616   -4.970588    0.587814
H      -0.702132   -4.507779    2.528384
H      -0.200582   -4.769239    0.868543
H       0.845298   -2.626576    1.270628
H      -0.468431   -2.090081    2.323500
