17

O       0.115700    0.074404   -0.664296
C       0.041206    1.207288   -0.287532
C      -1.109907    1.876207    0.456631
C      -0.789414    3.377573    0.463817
C      -0.861491    4.058998    1.853344
C       0.571924    4.037376    2.329181
C       1.426415    3.678937    1.372863
C       0.719595    3.396282    0.073703
O       1.046309    2.103833   -0.475092
H      -2.055858    1.618120   -0.022307
H      -1.134265    1.453566    1.467118
H      -1.398044    3.899673   -0.276405
H      -1.230507    5.089975    1.776379
H      -1.543763    3.542637    2.538844
H       0.850044    4.316149    3.339938
H       2.503736    3.613426    1.465608
H       0.971154    4.122945   -0.705800
