19

C      -0.052590    1.528933    0.127780
C      -0.056285    0.011370   -0.057936
C       0.732142   -0.492293   -1.313315
N       0.257444    0.043305   -2.603090
C       2.151954   -0.081029   -1.166360
N       3.241350    0.272064   -1.015585
C       0.664434   -1.958828   -1.357601
C       0.566234   -3.157549   -1.368158
C       0.471459   -4.609324   -1.393740
H       0.965858    1.916693    0.226121
H      -0.536203    2.044784   -0.708289
H      -0.602649    1.796912    1.034090
H       0.366978   -0.478119    0.825202
H      -1.080100   -0.362936   -0.168294
H      -0.691162   -0.285730   -2.758155
H       0.230795    1.058168   -2.564411
H       0.301143   -4.974942   -2.411845
H       1.396211   -5.066364   -1.025853
H      -0.351475   -4.966769   -0.765715
