14

N      -0.070461    1.202668    0.091503
C      -0.036654   -0.045660    0.073565
N       1.054951   -1.007697    0.001322
C       0.503677   -2.239856    0.697113
C      -0.886188   -1.928212    1.252722
C      -1.101501   -1.121300   -0.074129
C      -2.407308   -0.890336   -0.622873
N      -3.458385   -0.726958   -1.075224
C       0.105796   -1.959411   -0.687358
H       0.873940    1.591568    0.145487
H       1.246831   -2.928748    1.073916
H      -1.507567   -2.825117    1.283013
H      -0.978076   -1.361704    2.182887
H       0.290764   -2.383659   -1.663027
