16

C      -0.282918    1.459145   -0.059725
N       0.079573    0.050846    0.067302
C       1.368585   -0.514169   -0.286941
C       0.868862   -0.513491    1.146578
C       1.755349    0.417853    1.940777
O       1.751520    0.514904    3.141026
C       2.703697    1.140430    0.981555
C       2.556943    0.416781   -0.358737
O       3.300120    0.512803   -1.301338
H       0.487072    2.193220    0.208230
H      -0.573566    1.635611   -1.098862
H      -1.156377    1.636451    0.573564
H       1.358856   -1.387423   -0.932535
H       0.459642   -1.386201    1.646954
H       2.478917    2.210269    0.902699
H       3.734771    1.065284    1.341019
