22

C      -0.077252    1.407153   -0.212811
O      -0.015225    0.002303   -0.185459
C      -1.275510   -0.598051    0.038652
C      -1.084479   -2.089787    0.104458
C      -1.241199   -2.933897   -1.108887
N      -2.293403   -2.920335   -0.078913
C      -2.194346   -4.039689    0.879142
C      -0.735651   -4.108548    1.389997
C      -0.231550   -2.658190    1.232117
H       0.936437    1.777579   -0.384709
H      -0.730913    1.772789   -1.020962
H      -0.450104    1.819596    0.738678
H      -1.709074   -0.233020    0.987032
H      -1.984837   -0.341981   -0.764248
H      -1.526933   -2.473261   -2.050427
H      -0.617920   -3.818548   -1.214299
H      -2.882843   -3.819092    1.702476
H      -2.530771   -4.968928    0.408621
H      -0.674999   -4.466362    2.420732
H      -0.138389   -4.794643    0.782390
H       0.839357   -2.595672    1.024183
H      -0.418384   -2.077679    2.143706
