22

C      -0.050785    2.530721    2.753028
C       0.168218    1.676004    1.492710
C       1.133791    2.313385    0.592221
C       1.917824    2.854536   -0.140485
N       0.678675    0.362323    1.901450
C      -0.246111   -0.739275    2.209656
C      -1.755829   -0.630929    2.150794
C       0.622882   -0.785506    0.990426
C       0.081929   -0.712363   -0.422446
H       0.884055    2.612994    3.311904
H      -0.395033    3.532293    2.482458
H      -0.801700    2.063718    3.396589
H      -0.791128    1.619477    0.954453
H       2.611964    3.328639   -0.789277
H       0.090176   -1.316102    3.071705
H      -2.126863   -0.114231    1.264101
H      -2.192914   -1.635370    2.149834
H      -2.145406   -0.107439    3.030965
H       1.523166   -1.397156    1.055624
H      -0.859505   -0.165638   -0.502343
H       0.805068   -0.223554   -1.082342
H      -0.090288   -1.724610   -0.803958
