15

C      -0.070036    1.428317    0.037993
N      -0.011806   -0.021410    0.051385
C      -1.092171   -0.670796    0.095530
N      -1.244893   -2.043193    0.125391
C      -2.618023   -2.348338   -0.039062
C      -3.274692   -1.182270    0.013061
N      -4.608182   -0.814546    0.106093
O      -2.379651   -0.137004    0.118825
H       0.854162    1.818543   -0.398728
H      -0.917461    1.827770   -0.536590
H      -0.145555    1.836313    1.056105
H      -0.499265   -2.619113   -0.227004
H      -2.983754   -3.358876   -0.074351
H      -5.233373   -1.580947   -0.105604
H      -4.827135   -0.013312   -0.475990
