17

C       0.131881    1.531315   -0.244935
C      -0.034607    0.060921   -0.112677
C      -1.107860   -0.755498    0.100272
N      -0.611578   -2.043515    0.124913
N       0.634175   -2.053835   -0.051445
O       1.059310   -0.706973   -0.211446
C      -2.536562   -0.455645    0.281166
C      -3.589010   -1.403566   -0.259297
C      -3.378371   -1.294008    1.222867
H       0.806533    1.919472    0.525067
H       0.558730    1.790677   -1.219229
H      -0.831804    2.034470   -0.145176
H      -2.772946    0.602168    0.236578
H      -4.482342   -0.968742   -0.693337
H      -3.229686   -2.299582   -0.752134
H      -2.878271   -2.116791    1.720637
H      -4.125157   -0.782953    1.820059
