21

C      -0.223732    0.971734   -0.935575
C      -0.057021   -0.389105   -0.257038
C       0.689132   -0.320641    1.075130
C       0.843441   -1.694244    1.739499
O       1.616494   -2.569672    0.942603
O       1.995704    0.212653    0.809541
C       2.620367    0.864991    1.888699
C       3.867590    1.559131    1.364845
O       4.684844    2.081576    2.073819
H       0.749005    1.427913   -1.135418
H      -0.754556    0.871430   -1.886746
H      -0.796768    1.663292   -0.307117
H      -1.038911   -0.837898   -0.063942
H       0.476558   -1.084988   -0.912398
H       0.157895    0.357250    1.763164
H       1.283673   -1.574521    2.743234
H      -0.140351   -2.157020    1.871566
H       2.386240   -2.060070    0.660805
H       1.961956    1.631484    2.331375
H       2.911553    0.182395    2.701005
H       3.950371    1.549169    0.255538
