19

O       0.280199    1.308149   -0.202922
C       0.050439   -0.054599   -0.024965
C      -0.396235   -0.650416    1.284266
C      -1.332509   -0.657121    0.083548
C      -2.586053    0.184771    0.052543
C      -3.402928    0.178122   -1.235591
C      -3.925934   -0.543244   -0.030100
C      -2.574744    1.411086    0.808302
C      -2.558853    2.432462    1.448022
H      -0.385707    1.803893    0.289717
H       0.777912   -0.616266   -0.602797
H       0.033258   -1.587091    1.623918
H      -0.639633    0.046417    2.080348
H      -1.472568   -1.612853   -0.415202
H      -3.882281    1.103760   -1.530480
H      -3.000441   -0.405690   -2.056052
H      -3.889233   -1.626954   -0.014637
H      -4.762778   -0.110554    0.505040
H      -2.561845    3.330787    2.014733
