21

C       0.111140    1.424235   -0.399191
C      -0.052013    0.025010    0.209440
C      -1.477789   -0.505361    0.153884
C      -2.471974    0.240204    1.025463
C      -1.975394   -1.081479   -1.145842
C      -1.651798   -2.039110   -0.012649
N      -0.558233   -2.965012   -0.168425
C      -2.774694   -2.644787    0.676748
N      -3.660477   -3.118264    1.251092
H       1.158743    1.738236   -0.366910
H      -0.212160    1.439523   -1.445403
H      -0.474107    2.173972    0.141002
H       0.619499   -0.667499   -0.308282
H       0.277348    0.042778    1.257005
H      -2.586290    1.274597    0.685127
H      -3.459555   -0.225650    1.008192
H      -2.135274    0.265052    2.067843
H      -3.017123   -0.948645   -1.414940
H      -1.298265   -1.112904   -1.994809
H      -0.015021   -2.778262   -0.999993
H       0.060871   -2.966332    0.634547
