20

C      -0.038708    1.554520    0.000180
C      -0.012903    0.008893   -0.002639
C       0.678366   -0.520322   -1.285782
C       1.012044   -2.010694   -1.178017
C       1.978468   -2.271016   -0.014218
C       1.604007   -1.490663    1.216403
C       0.711952   -0.502835    1.235884
C      -1.406574   -0.476331    0.036689
N      -2.498945   -0.855185    0.065998
H       0.986627    1.934893    0.010649
H      -0.547174    1.936453   -0.889465
H      -0.559062    1.936648    0.882681
H       0.041326   -0.320652   -2.152730
H       1.600780    0.057785   -1.420749
H       0.085497   -2.575203   -1.019464
H       1.442863   -2.368875   -2.118182
H       2.007886   -3.340688    0.226532
H       3.006990   -2.010229   -0.305745
H       2.104133   -1.763664    2.142944
H       0.467508    0.002401    2.166503
