20

C      -0.034905    1.535351    0.012521
C       0.007633    0.005962   -0.002944
C       0.800418   -0.578698   -1.200184
C       1.349281   -1.943409   -0.724696
C       1.492576   -1.761176    0.772093
O       2.125211   -0.523974    1.142813
C       0.686413   -0.616734    1.217985
C       0.087078   -0.478157    2.590721
H       0.976499    1.941859    0.116222
H      -0.463013    1.925204   -0.916692
H      -0.641066    1.917501    0.840489
H      -1.021792   -0.380594   -0.025599
H       0.186707   -0.661197   -2.100973
H       1.635043    0.087758   -1.433040
H       0.636087   -2.755568   -0.914980
H       2.290303   -2.213744   -1.214183
H       1.715686   -2.606366    1.420269
H       0.054567    0.571866    2.900834
H      -0.938338   -0.863402    2.608200
H       0.679869   -1.027574    3.326259
