14

O      -0.108641    0.072819    0.378300
C      -0.072821    1.222655    0.016260
C      -1.219143    2.172904   -0.220177
C      -0.663446    3.372911   -0.507660
C      -0.275284    4.335479    0.603797
C       1.139135    3.648508    0.394614
C       0.782283    3.245048   -0.988718
C       1.148824    2.123305   -0.052218
H      -2.124967    2.037951    0.362733
H      -0.160840    5.388154    0.326038
H      -0.804231    4.239614    1.555280
H       2.070016    4.082397    0.749957
H       1.214036    3.460963   -1.955825
H       2.138870    1.677030   -0.057655
