16

O      -0.559889    1.305187   -0.522253
C      -0.155904    0.055165   -0.147439
C       0.538327   -0.806636   -0.965195
N       0.756011   -1.957643   -0.235855
C       0.230060   -1.836334    1.015583
C       0.281934   -2.961734    2.016082
C       1.331167   -3.937786    1.733169
C       2.184862   -4.739097    1.460157
C      -0.353352   -0.587069    1.106831
H      -1.016054    1.710311    0.220271
H       0.891970   -0.691106   -1.974967
H       1.286967   -2.756336   -0.539551
H       0.431644   -2.544597    3.019501
H      -0.683243   -3.488377    2.054876
H       2.943999   -5.451595    1.250556
H      -0.866289   -0.185178    1.968738
