18

O       0.020719    1.496121   -0.068991
C       0.010244    0.094276    0.014645
C       0.220079   -0.660425    1.345686
C      -0.493222    0.009078    2.528491
N      -1.945240    0.171867    2.316912
C      -2.438136    1.255267    1.464534
C      -2.405335   -0.146176    0.956236
C      -1.329910   -0.678132    0.034159
O      -0.623890   -1.715525    0.801515
H       0.908015    1.781245   -0.305446
H       0.645989   -0.354073   -0.756512
H       1.217077   -1.022774    1.613510
H      -0.366050   -0.627830    3.411065
H      -0.024213    0.976072    2.746576
H      -3.392364    1.668337    1.783177
H      -1.735662    1.969610    1.055452
H      -3.330297   -0.719631    0.918833
H      -1.726955   -1.061531   -0.908575
