21

C       0.492796    1.527931   -0.133303
C       0.126788    0.074889    0.063252
O       0.863838   -0.846660   -0.801875
C       1.230530   -1.679387    0.310087
C       0.631028   -0.679606    1.310759
O       1.935452   -0.273393    1.750543
C       2.596445   -1.324423    0.951958
C       3.108111   -2.414798    1.884657
C       3.674441   -0.754058    0.051273
H       1.526991    1.708679    0.166399
H       0.367399    1.807999   -1.183642
H      -0.162263    2.166113    0.469646
H      -0.951443   -0.083091   -0.085807
H       0.968302   -2.730263    0.169680
H      -0.059885   -0.881022    2.131537
H       2.297414   -2.818830    2.499139
H       3.552094   -3.237227    1.313711
H       3.870089   -2.007130    2.555823
H       4.413148   -0.214709    0.652736
H       4.191792   -1.556014   -0.485589
H       3.242034   -0.071074   -0.681261
