15

O       0.500434    1.032574   -0.864744
C       0.224747   -0.207872   -0.416092
C      -0.144186   -1.354567   -1.101466
N      -0.337931   -2.369771   -0.189386
C      -0.096276   -1.894927    1.070106
C       0.254911   -0.570691    0.963136
O      -0.405631   -1.720724   -2.411598
C      -0.030507   -1.006315   -3.468327
N       0.562305    0.115540   -3.418621
H       0.603830    0.955394   -1.839977
H      -0.597689   -3.305909   -0.442730
H      -0.191589   -2.533924    1.932256
H       0.508651    0.100204    1.768208
H      -0.320433   -1.540661   -4.374764
H       0.749271    0.476006   -4.349440
