20

C       0.030244    1.335518    0.040899
C       1.252355    0.505624    0.058223
N      -0.121918   -0.128464   -0.022034
C       0.189283   -0.502683   -1.448048
C       1.634133    0.061143   -1.359928
C       2.178191    1.116352   -2.349839
C       3.346281    0.403278   -3.052331
C       3.783098   -0.585570   -1.971303
O       2.570764   -1.014104   -1.363715
H      -0.306070    1.758976    0.982660
H      -0.214239    1.934614   -0.834719
H       1.888663    0.391613    0.930606
H       0.202466   -1.588150   -1.556943
H      -0.491374   -0.058756   -2.183507
H       1.411930    1.464487   -3.045982
H       2.534373    1.989802   -1.793025
H       2.994867   -0.141663   -3.934203
H       4.143083    1.082505   -3.365132
H       4.295716   -1.472619   -2.352975
H       4.442226   -0.097134   -1.234812
