21

C      -0.058008    1.463359   -0.301889
C       1.397911    1.652709    0.212108
C       1.442750    0.156963    0.650400
C       1.618680   -0.087386    2.143949
O       1.395258   -1.446031    2.498099
C       0.052446   -1.783572    2.714202
O      -0.750460   -1.831525    1.566116
C      -1.070761   -0.561269    1.013578
C       0.006852   -0.050724    0.064143
H      -0.807863    2.021777    0.267035
H      -0.212352    1.681154   -1.360733
H       2.120466    1.913891   -0.563928
H       1.509968    2.372135    1.028997
H       2.195133   -0.433630    0.121332
H       2.648638    0.144833    2.438040
H       0.957398    0.569755    2.732781
H       0.059000   -2.797155    3.121395
H      -0.391752   -1.080246    3.444140
H      -2.016572   -0.684702    0.473713
H      -1.252701    0.163747    1.823835
H       0.026890   -0.699647   -0.815419
