17

C      -0.620065    1.440740    0.675351
N       0.104487    0.297775    0.123566
C      -0.767169   -0.725506   -0.459393
C      -0.988548   -1.796666    0.621586
O      -1.792782   -2.686934    0.594440
C       0.018801   -1.511412    1.744531
C       0.918323   -0.403637    1.141859
C       2.123437   -0.974593    0.514311
N       3.064049   -1.440509    0.031866
H       0.095174    2.165957    1.073654
H      -1.175795    1.930230   -0.128388
H      -1.336515    1.185446    1.476852
H      -1.714417   -0.310205   -0.808582
H      -0.279981   -1.207383   -1.318422
H      -0.524758   -1.132799    2.616294
H       0.544344   -2.418830    2.045297
H       1.249628    0.313355    1.896908
