17

C       0.015940    1.567935    0.115357
C      -0.036174    0.043076   -0.079391
C      -1.443826   -0.480184   -0.124729
C      -2.022465   -1.009078   -1.225277
C      -3.390255   -1.476626   -1.179828
N      -4.005699   -1.988572   -2.177720
N      -3.928208   -1.285289    0.106817
N      -3.324893   -0.757247    1.187711
N      -2.126148   -0.361402    1.095750
H       1.052310    1.909011    0.190498
H      -0.454164    2.086815   -0.725872
H      -0.509184    1.854812    1.029969
H       0.485173   -0.242204   -0.998148
H       0.481288   -0.442504    0.756506
H      -1.496832   -1.105045   -2.167659
H      -4.962774   -2.256274   -1.943332
H      -4.880165   -1.567515    0.295316
