20

C      -0.015228    1.574276   -0.075238
C       0.011662    0.054117    0.024996
C       1.064869   -0.678693   -0.866238
N       1.772837   -1.175550    0.357897
C       2.737706   -0.289081    0.907299
O       3.822469    0.023195    0.508761
C       1.796813    0.184266    2.036366
C       0.704795   -0.609072    1.272606
C      -0.128495   -1.594411    2.061319
H       0.988474    2.007615   -0.016426
H      -0.448333    1.886654   -1.031325
H      -0.620662    2.014348    0.724764
H      -1.000988   -0.336859   -0.111094
H       0.671411   -1.500209   -1.469454
H       1.696684   -0.044179   -1.494248
H       2.023188   -0.210600    3.030498
H       1.698384    1.269112    2.101382
H      -0.868951   -1.066431    2.673561
H      -0.666665   -2.277939    1.396678
H       0.499471   -2.194453    2.727331
