17

N      -0.114796    1.371718    0.087167
C       0.056198   -0.004203   -0.013060
O       1.153705   -0.529643   -0.051880
N      -1.125723   -0.711526   -0.040252
C      -1.138505   -2.144559    0.045528
C      -1.515895   -2.842151    1.418007
C      -2.724158   -3.452789    0.706231
O      -3.501580   -2.358431    0.193709
C      -2.374442   -2.813078   -0.572338
H       0.730523    1.878908   -0.126872
H      -0.946798    1.772474   -0.319810
H      -1.981859   -0.252317    0.231371
H      -0.189483   -2.512473   -0.342504
H      -0.764756   -3.572169    1.727451
H      -1.752947   -2.177241    2.251721
H      -3.248377   -4.380437    0.899519
H      -2.560832   -3.103056   -1.600103
