17

N       0.243959    1.540284   -0.767541
C      -0.014397    0.205449   -0.281489
C       0.889715   -0.995325   -0.712339
O       1.325189   -1.169718    0.674445
C       0.599062   -0.093197    1.105751
O       0.529219    0.352930    2.206432
C      -1.501871   -0.080489   -0.353363
C      -2.210734   -0.877488    0.680744
N      -2.426240    0.574283    0.572988
H       1.235108    1.725108   -0.879622
H      -0.212966    1.701615   -1.658926
H       0.386752   -1.894459   -1.073866
H       1.736167   -0.735041   -1.352651
H      -1.869534   -0.129733   -1.379733
H      -3.058488   -1.491550    0.390846
H      -1.646036   -1.256788    1.527350
H      -1.893356    1.055742    1.295620
