14

C      -0.027333   -1.120722    0.066013
C      -0.034565    0.081716    0.056337
C      -0.027988    1.508299    0.021229
O      -0.701685    2.288842    1.063279
C      -0.140064    3.289126    0.165868
C       1.182119    2.508463   -0.105510
C       1.017034    2.617404   -1.635520
C      -0.438328    2.490477   -1.139676
H      -0.024871   -2.182799    0.080792
H      -0.296416    4.341942    0.392550
H       2.079425    2.500906    0.512333
H       1.294227    3.573575   -2.086486
H       1.404455    1.785260   -2.228101
H      -1.376336    2.462547   -1.693125
