17

O       0.120781    1.404521    0.327768
C       0.085292    0.018212    0.029047
C      -1.320186   -0.503710   -0.130638
C      -2.084133   -1.022923    1.083585
C      -1.667386   -1.964233   -0.007364
O      -2.653855   -2.306694   -0.957969
C      -3.011778   -1.213735   -1.706386
O      -3.862348   -1.269408   -2.541484
C      -2.174112   -0.003888   -1.278851
H      -0.367249    1.539396    1.147234
H       0.636768   -0.090625   -0.911731
H       0.617400   -0.574284    0.790908
H      -1.541214   -1.082145    2.021814
H      -3.142220   -0.800981    1.180948
H      -0.947302   -2.757622    0.149555
H      -2.840956    0.825875   -1.031585
H      -1.563886    0.319255   -2.128825
