18

O      -0.900963    1.143480    0.082403
C       0.238067    0.759261    0.032059
C       1.445448    1.682908    0.041733
C       1.306867    2.841890    1.035790
C       2.598545    3.670091    1.048083
C       3.811460    2.753311    1.267103
C       3.792930    1.600917    0.261197
O       2.573216    0.872770    0.315240
H       0.503862   -0.318599   -0.036070
H       1.529056    2.102622   -0.981366
H       0.434203    3.442214    0.764609
H       1.118645    2.424734    2.032518
H       2.705538    4.191647    0.086942
H       2.551434    4.443307    1.821618
H       4.749854    3.310497    1.168329
H       3.784199    2.337028    2.281538
H       3.944797    1.991814   -0.760219
H       4.586074    0.876213    0.464977
