20

C       0.054541    1.529402    0.131891
C      -0.052593    0.008440   -0.000509
C       0.790122   -0.548260   -1.152832
C       0.626965   -2.072583   -1.310750
O      -0.718683   -2.413799   -1.510987
C       1.470388   -2.619018   -2.465871
C       2.968203   -2.421151   -2.435401
O       0.912340   -3.195814   -3.376644
H       1.088772    1.844245    0.312614
H      -0.288290    2.031267   -0.779836
H      -0.554894    1.898541    0.962541
H       0.263011   -0.468061    0.937390
H      -1.094731   -0.284780   -0.160127
H       0.491214   -0.069142   -2.094617
H       1.848097   -0.307312   -0.987923
H       1.000794   -2.554371   -0.388394
H      -0.733675   -2.881981   -2.362521
H       3.207136   -1.391813   -2.726629
H       3.372616   -2.574623   -1.430499
H       3.442674   -3.102452   -3.142832
