18

O      -0.343107    1.554041    0.206908
C       0.076697    0.206142    0.202037
C      -1.076682   -0.730547   -0.159541
N      -1.631597   -0.290628   -1.436916
C      -2.235235   -1.105095   -2.177386
C      -2.875987   -0.810540   -3.517780
O      -3.081839   -2.100418   -4.076873
C      -3.222255   -2.969333   -2.987783
O      -2.435631   -2.433349   -1.921638
H      -0.846533    1.660815   -0.611150
H       0.906595    0.045492   -0.506460
H       0.447963   -0.024901    1.206308
H      -0.740481   -1.775388   -0.183452
H      -1.856001   -0.647207    0.609713
H      -3.824501   -0.268501   -3.381564
H      -2.225703   -0.230555   -4.173843
H      -4.267971   -3.038680   -2.646914
H      -2.839239   -3.956529   -3.257736
