21

C       0.006275    1.384592    0.294260
C      -0.065936   -0.104473   -0.077784
C      -1.513644   -0.566822   -0.211769
C       0.796017   -0.428905   -1.317251
C       2.218525   -0.607620   -0.740426
C       1.937270   -0.961364    0.752263
O       0.535855   -0.904229    0.950377
C       2.974910   -1.711521   -1.439526
O       4.034853   -1.589222   -1.995052
H       1.041585    1.728575    0.380813
H      -0.489880    2.000567   -0.462514
H      -0.487810    1.552790    1.255235
H      -2.014318   -0.038576   -1.028907
H      -1.552014   -1.640967   -0.412255
H      -2.066214   -0.370605    0.711588
H       0.446290   -1.368136   -1.761820
H       0.755001    0.343416   -2.088407
H       2.807872    0.307303   -0.825801
H       2.268899   -1.973630    1.015211
H       2.466182   -0.258259    1.409295
H       2.454657   -2.699642   -1.397755
