15

N      -0.060287    1.522055   -0.085360
C      -0.032444    0.075105    0.009123
C       0.153600   -0.479073    1.441191
O      -1.135784   -1.117987    1.410533
C      -1.422623   -0.596980    0.099831
C       0.892086   -0.563984   -1.021169
F       2.154494   -0.124684   -0.867479
F       0.915698   -1.900336   -0.931977
F       0.505985   -0.247472   -2.270579
H       0.879358    1.892390    0.035713
H      -0.358256    1.799817   -1.017457
H       0.967735   -1.197486    1.583020
H       0.212323    0.310958    2.197730
H      -2.244503    0.127182    0.106969
H      -1.627212   -1.391596   -0.625276
