21

C      -0.133013    1.425419    0.543705
C      -0.015399    0.031949   -0.043602
O      -1.314654   -0.584640    0.035586
C      -1.404434   -1.833457   -0.469914
O      -0.466701   -2.418150   -0.964353
C      -2.786343   -2.356205   -0.330273
C      -3.241956   -3.440206   -1.291047
C      -3.029586   -3.793123    0.144708
C      -1.910539   -4.708726    0.586718
H       0.837561    1.928850    0.503974
H      -0.855765    2.025477   -0.016385
H      -0.457060    1.383489    1.587449
H       0.305126    0.052846   -1.089985
H       0.704463   -0.584436    0.504451
H      -3.509404   -1.615430   -0.012920
H      -4.250265   -3.369155   -1.682913
H      -2.490290   -3.773055   -1.998926
H      -3.935908   -3.879047    0.739029
H      -1.010229   -4.547973   -0.008344
H      -1.658248   -4.542780    1.639840
H      -2.216359   -5.755225    0.479374
