21

C      -0.013061    0.814224    1.044958
C       0.137376   -0.492260    0.263919
C       0.590091   -0.268099   -1.186542
O       1.874013    0.342774   -1.142662
C       2.342042    0.852818   -2.384634
C       3.773510    1.306403   -2.147924
O       4.595219    0.230729   -1.742212
C       0.609495   -1.524057   -1.947973
C       0.628638   -2.559700   -2.558022
H       0.928823    1.367389    1.060603
H      -0.776192    1.459111    0.594736
H      -0.313020    0.615312    2.077836
H       0.871036   -1.147779    0.745666
H      -0.810250   -1.040246    0.239210
H      -0.117457    0.423842   -1.675208
H       2.317949    0.066544   -3.151474
H       1.711950    1.692446   -2.719685
H       4.191913    1.703953   -3.078580
H       3.774259    2.118790   -1.403116
H       4.106677   -0.221658   -1.044355
H       0.645294   -3.472150   -3.101669
