14

N       0.075797    1.374514    0.178768
C      -0.034730    0.008602    0.066894
C      -1.188222   -0.708287    0.033231
C      -1.194044   -2.154763   -0.010238
O      -2.195124   -2.854715   -0.041277
C       0.176233   -2.736866   -0.019773
O       0.228391   -4.089052   -0.058909
C       1.257029   -1.937886    0.005021
O       1.180620   -0.569129    0.047077
H       0.942780    1.759988   -0.165932
H      -0.741535    1.898165   -0.092429
H      -2.142407   -0.196357    0.045408
H       1.147211   -4.380651   -0.059562
H       2.287881   -2.268912   -0.003258
