16

C      -0.028362    1.457920   -0.022471
N      -0.007633   -0.002170   -0.028543
C      -0.024102   -0.654407    1.202190
O      -0.067996   -0.077647    2.264541
C       0.033946   -0.746297   -1.219280
N      -0.016629   -2.016402   -1.201493
C       0.153072    0.072707   -2.507976
O       0.074235   -0.740521   -3.656239
H       0.825339    1.874452   -0.564340
H      -0.953644    1.852019   -0.455032
H       0.028081    1.764733    1.021349
H       0.009876   -1.744001    1.085355
H       0.077651   -2.357728   -2.158325
H      -0.600342    0.871672   -2.523202
H       1.133762    0.561164   -2.540607
H      -0.845151   -1.000913   -3.777432
