25

C      -0.913937    1.075820   -0.000136
C       0.128489   -0.041052    0.008830
C       1.231864    0.091713   -1.064995
C       2.398475   -0.669451   -0.469926
C       3.563215   -1.054188   -1.328678
C       2.218997   -0.880419    0.842005
C       3.135565   -1.577000    1.801343
C       0.918677   -0.258503    1.334981
C       1.179066    1.021112    2.152646
H      -0.459582    2.057778    0.167105
H      -1.429880    1.113110   -0.965824
H      -1.674963    0.923381    0.773245
H      -0.389708   -0.987474   -0.191895
H       0.915912   -0.307228   -2.037550
H       1.502331    1.144488   -1.244475
H       4.023504   -0.167665   -1.785164
H       4.341729   -1.584506   -0.774927
H       3.244282   -1.696581   -2.160021
H       4.026305   -1.980136    1.313567
H       3.473003   -0.902095    2.598398
H       2.621180   -2.409388    2.299532
H       0.374212   -0.956611    1.986475
H       1.705152    1.775697    1.557964
H       0.245234    1.463595    2.513338
H       1.797456    0.803596    3.029358
