23

C      -0.188535    1.597696    0.092227
C      -0.051997    0.063992    0.039833
C       0.779301   -0.411229    1.247559
C      -1.449075   -0.580852    0.083616
C       0.668731   -0.388777   -1.247724
C       0.138625   -0.035631   -2.678330
C       1.582178    0.332281   -3.135676
C       1.999917    0.271456   -1.658244
O       2.948105    0.679543   -1.048271
H       0.790946    2.084289    0.069902
H      -0.782830    1.984570   -0.742387
H      -0.691948    1.901499    1.016000
H       0.310864   -0.096833    2.186598
H       0.858891   -1.504204    1.264884
H       1.790953    0.001243    1.209928
H      -2.066187   -0.261742   -0.763189
H      -1.382306   -1.674249    0.057692
H      -1.974950   -0.300334    1.002885
H       0.841321   -1.472850   -1.186837
H      -0.345605   -0.848798   -3.219935
H      -0.525474    0.830927   -2.680218
H       2.069604   -0.449506   -3.727219
H       1.737505    1.291419   -3.636027
