16

C      -0.011531    1.424474    0.152632
N      -0.033191    0.006333   -0.086286
C       0.601542   -0.605272   -1.116198
C       1.218538    0.007724   -2.175542
N       1.798758   -0.753281   -3.155788
N       1.836641   -2.075647   -3.184741
C       1.267149   -2.701120   -2.179856
C       0.606933   -2.073341   -1.057553
O       0.086166   -2.670756   -0.110315
H       1.010705    1.815512    0.274607
H      -0.484528    1.975193   -0.672246
H      -0.571564    1.645075    1.063024
H      -0.317716   -0.645069    0.632888
H       1.285189    1.079057   -2.312998
H       2.249108   -0.308328   -3.939091
H       1.308487   -3.784471   -2.212402
