20

C       0.152800    1.072890   -0.391086
O      -0.069732    0.001537    0.502782
C      -1.308519   -0.610482    0.313094
C      -1.552464   -1.639867   -0.758047
C      -0.285271   -2.470526   -0.988992
C      -0.254432   -2.836720    0.526334
C      -1.533989   -2.014304    0.754767
C      -2.640762   -2.417700    1.687355
H       1.150616    1.466819   -0.183346
H       0.104156    0.745314   -1.439427
H      -0.583525    1.878956   -0.247773
H      -2.155921    0.057912    0.487280
H      -2.393602   -1.566903   -1.439374
H      -0.461860   -3.341533   -1.623377
H       0.580754   -1.925289   -1.375148
H      -0.417017   -3.903886    0.697436
H       0.622697   -2.513782    1.092411
H      -2.316713   -2.351757    2.733561
H      -3.518484   -1.772946    1.572857
H      -2.958700   -3.450723    1.504789
