18

C       0.114603    1.385496    0.293623
C      -0.073125   -0.086567    0.020122
C       0.606419   -0.780747   -1.157244
C       1.466113   -0.045162   -2.043400
C       2.178774    0.545603   -2.811913
N       0.984012   -1.038723    0.229586
C       2.201325   -0.814819    0.875739
C       3.382057   -1.528548    0.251766
O       2.261698   -0.174102    1.901961
H       1.056120    1.753323   -0.118823
H      -0.706474    1.952067   -0.156456
H       0.122039    1.568476    1.370531
H      -1.059167   -0.476242    0.272229
H       0.074893   -1.604047   -1.631584
H       2.804082    1.075779   -3.487544
H       3.635553   -1.067820   -0.708398
H       4.234775   -1.458140    0.926737
H       3.140726   -2.577870    0.059121
