15

N       0.073760    1.302517   -0.170525
C      -0.052613   -0.057221   -0.055848
N      -1.148748   -0.759868   -0.018726
C      -0.661445   -2.062455    0.005914
C       0.672376   -2.065510   -0.008189
C       1.258717   -3.427432    0.042640
O       0.070366   -4.243066    0.078252
C      -1.153677   -3.468425    0.063084
O       1.119790   -0.767893   -0.049250
H       0.908391    1.689022    0.245666
H      -0.770183    1.796945    0.078383
H       1.860126   -3.696343   -0.838350
H       1.867797   -3.626014    0.937300
H      -1.735388   -3.697940    0.966587
H      -1.753631   -3.764848   -0.808206
