21

C       0.169851    1.357180   -0.117650
O       0.212431   -0.047277   -0.066325
C       0.533218   -0.536821    1.221852
C       0.577865   -2.039946    1.147542
C       1.828073   -2.813269    0.847918
O       2.980833   -2.164020    1.394183
C       2.465966   -2.362889    2.736324
C       1.163833   -2.964879    2.204341
C       0.408858   -4.087777    2.853433
H       1.140669    1.806920    0.145566
H      -0.083243    1.640728   -1.142361
H      -0.592481    1.770774    0.562947
H       1.506782   -0.141866    1.548071
H      -0.225255   -0.205517    1.952710
H      -0.305429   -2.473279    0.681842
H       1.976338   -3.485989    0.010489
H       3.078495   -3.097696    3.273360
H       2.420476   -1.432571    3.314909
H      -0.168204   -3.735889    3.717317
H      -0.298006   -4.544683    2.153729
H       1.087952   -4.873299    3.204122
