20

C      -0.017014    1.513369    0.006282
C      -0.068989    0.017908    0.151769
C      -1.297956   -0.776686   -0.287977
N      -1.320318   -2.031463    0.497573
C      -1.530691   -1.813778    1.937904
C      -0.155539   -2.036199    1.416886
C       0.599162   -3.327520    1.607227
C       0.617431   -0.768769    1.183549
O       1.146294   -0.698295   -0.151432
H       0.936475    1.903278    0.370700
H      -0.120497    1.801631   -1.045789
H      -0.830147    1.989384    0.564395
H      -2.223307   -0.210603   -0.130487
H      -1.230848   -1.026836   -1.352444
H      -1.799779   -0.814036    2.276718
H      -2.049772   -2.619764    2.449582
H      -0.089364   -4.175765    1.624358
H       1.308144   -3.474834    0.786672
H       1.160400   -3.318472    2.548437
H       1.240079   -0.331205    1.961581
