20

O       0.129308    0.019748   -0.767788
C       0.092076    1.031498   -0.110736
C       1.265578    1.918627    0.092338
C       1.022468    3.407030    0.141632
N       1.459804    2.707815    1.317997
C       0.543857    2.582830    2.456567
C       0.851432    3.651481    3.479074
C       0.177526    4.999385    3.405537
C      -0.188054    4.030511    4.502019
H      -0.850464    1.365580    0.376148
H       2.180791    1.541842   -0.357048
H       1.738155    4.068847   -0.338565
H      -0.015643    3.738498    0.092481
H      -0.518128    2.656965    2.170940
H       0.695613    1.587998    2.892388
H       1.884689    3.648678    3.812542
H       0.755992    5.879286    3.663301
H      -0.549646    5.163649    2.616730
H      -1.157762    3.546038    4.446445
H       0.141543    4.242545    5.512731
