19

C      -0.593208    1.547228   -0.247373
C       0.090099    0.190303   -0.084822
C      -0.887202   -0.908201    0.349514
N       0.779467   -0.203257   -1.313160
C       0.685046    0.252657   -2.573013
N       1.467772   -0.435061   -3.389387
C       2.038378   -1.341372   -2.546130
N       2.903493   -2.316970   -3.002515
N       1.663731   -1.247690   -1.275931
H       0.113532    2.320362   -0.561641
H      -1.409894    1.501678   -0.975322
H      -1.023648    1.848784    0.710871
H       0.875020    0.277121    0.674883
H      -1.702947   -1.007220   -0.374278
H      -0.368140   -1.865868    0.420932
H      -1.318037   -0.665751    1.325706
H       0.052851    1.077598   -2.860182
H       3.392078   -2.043976   -3.842552
H       3.519959   -2.678322   -2.289473
