19

C      -0.120802    1.572093    0.070547
C      -0.027983    0.068097    0.171610
N       1.267116   -0.566475   -0.084216
C       0.666052   -0.674071    1.272998
C       1.416462    0.053154    2.367174
O       2.519725   -0.704065    2.869969
C       0.077747   -2.043349    1.573850
N       0.328019   -2.531154    2.822041
O      -0.574461   -2.647863    0.737560
H       0.809233    2.062701    0.363876
H      -0.330154    1.857513   -0.965792
H      -0.935165    1.957441    0.693037
H      -0.890860   -0.472814   -0.209950
H       1.100753   -1.450855   -0.563433
H       1.760070    1.024292    1.997553
H       0.763064    0.228397    3.227614
H       3.091220   -0.893140    2.116017
H       1.145134   -2.188310    3.310661
H       0.045524   -3.486272    2.981817
