25

C       1.132594   -0.167995   -1.275924
C       0.210333   -0.034260   -0.058859
C       0.753002   -0.614710    1.262509
C      -0.202475   -0.310535    2.437671
C      -0.338718    1.172545    2.800860
C       1.000117   -2.123218    1.180950
C       2.232359   -2.687481    0.431263
O       2.609891   -3.492224    1.564561
C       1.633662   -2.838574    2.398694
H       1.288842   -1.211131   -1.566094
H       0.703783    0.347041   -2.141461
H       2.115405    0.275951   -1.082652
H      -0.008480    1.028679    0.089659
H      -0.754842   -0.511759   -0.279483
H       1.717747   -0.128921    1.480165
H      -1.193387   -0.725512    2.206172
H       0.148374   -0.850444    3.325626
H       0.639140    1.615944    3.020450
H      -0.795465    1.757360    1.997180
H      -0.965310    1.297144    3.689599
H       0.080488   -2.628043    0.864685
H       2.044671   -3.296868   -0.460411
H       2.999688   -1.937511    0.194075
H       2.108919   -2.157844    3.120874
H       1.011253   -3.555531    2.946133
