15

O       0.075413    0.034318    0.245315
C       0.019554    1.216632    0.035803
C      -1.226340    2.079306   -0.078040
C      -0.981097    3.309755   -0.573755
C       0.462668    3.382397   -1.005898
C       1.797229    3.908866   -0.361816
C       1.394979    3.331944    0.990242
C       1.081457    2.285751   -0.139780
O       2.414429    2.575121   -0.710007
H      -2.193015    1.683439    0.210051
H      -1.734020    4.075001   -0.733473
H       0.582915    3.208242   -2.078599
H       2.397529    4.783306   -0.613966
H       2.222904    3.046986    1.637946
H       0.552291    3.776215    1.521277
