17

C      -1.085453    0.698956    0.792918
C      -0.066434   -0.233937    0.183863
N       1.048239    0.367499   -0.568859
C       1.337340   -0.385065    0.650732
C       1.922945    0.426606    1.813557
C       1.624830   -0.187575    3.109097
C       1.356822   -0.705398    4.157991
C       3.376071    0.586539    1.625436
N       4.512833    0.699261    1.456259
H      -0.628652    1.632667    1.128412
H      -1.849656    0.957225    0.052817
H      -1.583516    0.226888    1.645708
H      -0.495149   -1.147672   -0.226708
H       1.285491   -0.170107   -1.397095
H       1.783759   -1.372705    0.561603
H       1.485991    1.431019    1.774821
H       1.127535   -1.157283    5.091673
