18

C      -0.218419    1.386359    0.049601
N      -0.105008   -0.060781   -0.064108
C       0.683825   -0.633162   -1.029692
O       1.424562    0.011157   -1.746470
C       0.626487   -2.164999   -1.094092
N       0.791618   -2.599971   -2.464982
C       1.689786   -2.804826   -0.146316
N       1.734384   -2.309633    1.120503
O       2.367895   -3.738712   -0.522871
H       0.739801    1.825304   -0.228651
H      -0.987782    1.792606   -0.617826
H      -0.461519    1.658811    1.079431
H      -0.868509   -0.615992    0.291074
H      -0.347035   -2.501349   -0.702333
H       1.388868   -1.915465   -2.924733
H       1.320275   -3.470360   -2.438920
H       1.312979   -1.420884    1.337368
H       2.453336   -2.663614    1.731606
