13

O       0.241537    1.086553   -0.670357
C      -0.076074    0.120905    0.299899
C      -1.432723   -0.490960    0.093736
C      -2.211700   -0.666724   -1.021945
C      -3.367086   -1.339233   -0.516846
N      -3.289925   -1.546315    0.767782
O      -2.055182   -1.002825    1.153999
C      -1.908647   -0.298142   -2.352532
N      -1.644172   -0.016095   -3.444501
H       0.398309    0.655137   -1.517628
H       0.671838   -0.686053    0.356154
H      -0.070537    0.624023    1.272104
H      -4.239471   -1.667728   -1.062778
