15

N      -0.126834    1.451376   -0.186310
C      -0.035751    0.061720   -0.013889
C      -0.319806   -0.884746   -1.162551
C      -1.178776   -1.011062    0.068724
N      -0.463424   -1.666804    1.168518
C       0.609543   -0.725492    1.102248
N       1.669137   -0.532285    1.753686
C      -2.590042   -0.829584    0.099511
N      -3.738133   -0.683726    0.114622
H      -0.050372    1.944171    0.696140
H       0.585364    1.802959   -0.815899
H      -0.793446   -0.399958   -2.010805
H       0.368834   -1.688102   -1.409033
H      -0.263502   -2.660143    1.097177
H       1.817539   -1.250228    2.465272
