17

O       0.535737    0.160741   -0.901301
C      -0.143689    0.435222    0.316288
C      -1.486766   -0.205074    0.238029
C      -2.496558   -0.274294   -0.882654
C      -1.919700   -1.559127   -0.271378
C      -2.978222   -1.756582    0.848696
O      -4.274337   -1.426411    0.301544
C      -3.715503   -0.114462    0.067424
C      -2.687720   -0.269504    1.235903
H       1.404517    0.570639   -0.858141
H       0.411704    0.036637    1.182363
H      -0.254944    1.521341    0.475640
H      -2.382682   -0.021522   -1.927062
H      -1.366537   -2.284724   -0.850316
H      -2.971978   -2.630760    1.497502
H      -4.454870    0.672015   -0.073872
H      -2.782221    0.160964    2.229894
