18

C      -0.031540    1.440253    0.079845
O      -0.019599    0.021479    0.025690
C       0.593739   -0.605916    1.055628
C       0.722608   -1.963269    1.176338
C       0.298902   -3.095342    0.310929
N       1.427819   -2.113139    2.381056
C       1.659529   -0.873444    2.881440
N       2.267627   -0.671487    4.121158
N       1.178613    0.070796    2.100235
H       0.984556    1.849860    0.085181
H      -0.559882    1.769291   -0.817197
H      -0.552284    1.803178    0.972673
H       1.146749   -3.686800   -0.060789
H      -0.383671   -3.789159    0.820540
H      -0.228900   -2.694456   -0.557533
H       1.601511   -2.982061    2.856593
H       3.173464   -1.119889    4.202114
H       2.369731    0.322645    4.284263
