19

O       0.165958    1.370118   -0.021766
C       0.063070   -0.047180   -0.066796
C      -1.405902   -0.419090    0.058490
N      -2.172749   -0.012438   -1.103070
C      -2.539920    1.408514   -1.304726
C      -3.900790    0.943235   -1.872859
C      -3.590512   -0.408823   -1.168334
C      -3.864050   -1.659662   -1.876712
N      -4.086406   -2.645515   -2.437654
H       1.072305    1.614487   -0.228754
H       0.452308   -0.448140   -1.013432
H       0.621669   -0.512497    0.760336
H      -1.479315   -1.509665    0.145295
H      -1.805770    0.018474    0.993504
H      -2.645585    1.960347   -0.359208
H      -1.866992    1.963854   -1.960140
H      -4.798404    1.463480   -1.541475
H      -3.902876    0.847246   -2.958619
H      -4.075132   -0.457911   -0.178670
