23

C       0.065542    1.293160    0.316400
O      -0.054825    0.004538   -0.254538
C      -1.328077   -0.547201   -0.138734
C      -1.744679   -1.156642    1.178991
C      -1.470060   -2.037702   -0.031530
C      -2.652865   -2.482283   -0.885191
C      -3.477836   -3.632396   -0.305403
C      -3.463249   -1.177673   -1.101152
C      -2.430372   -0.031244   -1.059321
H       1.112209    1.590352    0.215710
H      -0.561759    2.034288   -0.199194
H      -0.206101    1.290434    1.381808
H      -0.984177   -1.175729    1.951937
H      -2.757346   -1.030382    1.549182
H      -0.581922   -2.659125    0.005031
H      -2.247151   -2.801398   -1.855532
H      -3.866144   -3.373790    0.686089
H      -4.332144   -3.870401   -0.948756
H      -2.876680   -4.541641   -0.200271
H      -4.033970   -1.194822   -2.033731
H      -4.192657   -1.059808   -0.291517
H      -2.873578    0.916682   -0.735497
H      -1.986353    0.133473   -2.048525
