11

O      -0.130395    0.002181    0.000627
C      -0.052181    1.188732    0.009402
N       1.187093    1.911562    0.001794
N       1.076392    3.254018    0.013793
C       2.190121    3.905249    0.007020
C       3.494345    3.241558   -0.012305
O       4.554214    3.816926   -0.019134
N       3.449491    1.803308   -0.023645
N       2.348348    1.193435   -0.016663
H      -0.882313    1.911765    0.024075
H       2.138565    4.989732    0.016267
