16

O       0.095336    1.180133   -0.557106
C      -0.052194    0.069926    0.313266
C      -1.456361   -0.438183    0.317860
C      -1.921808   -1.845448    0.438454
C      -3.390327   -1.578197    0.862411
O      -3.385487   -0.459995    1.776118
C      -2.781543    0.282807    0.692097
C      -3.397816   -0.650351   -0.381709
N      -2.035424   -1.143274   -0.887338
H      -0.194760    0.883316   -1.427619
H       0.632604   -0.750056    0.046409
H       0.225326    0.422254    1.312869
H      -1.283978   -2.707680    0.585950
H      -4.073884   -2.382826    1.122643
H      -2.839634    1.364747    0.780369
H      -4.217831   -0.445603   -1.065503
