19

O      -0.100435    1.499013    0.290388
C       0.007836    0.086812    0.213239
C      -1.326697   -0.528479   -0.122142
C      -1.921228   -0.479738   -1.550816
C      -2.314651   -1.989278   -1.442689
C      -1.761182   -2.037145    0.003946
O      -0.984053   -3.113478    0.422957
C      -2.716587   -1.526030    1.088591
O      -2.324907   -0.149600    0.864994
H      -0.827252    1.673915    0.900847
H       0.744804   -0.132827   -0.566931
H       0.377690   -0.343022    1.157374
H      -2.751401    0.220987   -1.647299
H      -1.186811   -0.272448   -2.332812
H      -3.370931   -2.243745   -1.563632
H      -1.733937   -2.623505   -2.121106
H      -0.464855   -3.430854   -0.323037
H      -3.789653   -1.685705    0.930419
H      -2.435300   -1.871360    2.090317
