16

O      -0.093243    1.427353   -0.011179
C       0.022459    0.058798   -0.013462
C      -1.061868   -0.992151    0.085126
C      -0.506921   -1.712489   -1.138651
C       0.806813   -0.844687   -1.024741
C       1.780260   -1.671185   -0.184399
O       2.766565   -2.275321   -0.540859
N       1.226601   -1.680161    1.083581
C       0.048518   -0.864761    1.158944
H       0.707693    1.805488    0.371035
H      -2.103010   -0.882024    0.363518
H      -0.385042   -2.799171   -1.094363
H      -1.061002   -1.442688   -2.039547
H       1.220815   -0.432473   -1.940385
H       1.466501   -2.398548    1.747662
H      -0.249259   -0.500700    2.134110
