22

C      -0.257788    1.644019   -0.070342
C      -0.055732    0.130249   -0.001689
C       0.926534   -0.598660   -1.034207
C       1.453061    0.130221   -2.258115
C       1.839859   -0.771385    0.196562
C       2.516659   -1.621406    1.313605
C       1.934134   -0.284553    1.945475
C       2.584778    0.483947    0.787957
N       0.678100   -0.605893    1.126716
H       0.640786    2.220655   -0.293523
H      -0.993490    1.875498   -0.849466
H      -0.664984    2.006173    0.879659
H      -1.055018   -0.314717   -0.019266
H       0.476630   -1.553531   -1.321649
H       1.949718    1.068282   -1.992048
H       2.180554   -0.489037   -2.794060
H       0.642721    0.366017   -2.956432
H       1.983954   -2.532524    1.584780
H       3.604264   -1.729608    1.322896
H       1.902875   -0.028480    3.007934
H       3.678219    0.484360    0.740132
H       2.185592    1.469924    0.570564
