14

O       0.089719   -0.021698    0.078274
C      -0.001041    1.160914    0.009788
O       1.127097    1.954417    0.101199
C       0.978601    3.305570    0.092861
N      -0.116449    3.935224    0.225041
C       0.167352    5.375901    0.087827
C       1.680096    5.511259   -0.050683
O       2.384529    4.994090    1.080031
C       2.212614    4.139196   -0.062737
H      -0.914783    1.751292   -0.132953
H      -0.354637    5.764662   -0.793968
H      -0.214345    5.911865    0.962879
H       2.149361    6.342838   -0.567488
H       3.110319    3.787714   -0.558629
