15

O       0.023985   -0.019528   -0.041453
C      -0.008385    1.174485   -0.007124
C      -1.252878    2.064195    0.200855
C      -0.676372    3.460916    0.144600
C       0.564052    3.820398    0.971005
C       1.322647    2.560902    1.367960
N       1.172509    2.029209   -0.059568
C       0.691279    3.384207   -0.466753
H      -1.985289    1.891256   -0.594815
H      -1.730702    1.784248    1.145253
H      -1.308596    4.302200   -0.114231
H       0.683738    4.808906    1.397006
H       2.380268    2.740407    1.572779
H       0.909922    1.911788    2.148884
H       1.056194    3.868124   -1.362646
