17

N       0.031164    1.280248    0.600829
C      -0.056602   -0.086680    0.124054
C      -1.501150   -0.428691   -0.359039
O      -2.187188    0.724634   -0.789422
C      -1.285374   -1.361413   -1.562551
O       0.126637   -1.611057   -1.663140
C       0.806964   -0.514534   -1.105583
C       0.972844    0.602748   -2.063302
N       1.112326    1.496222   -2.783489
H       0.818132    1.408823    1.225439
H       0.143965    1.928039   -0.173810
H       0.211898   -0.760371    0.941687
H      -2.053418   -0.930892    0.447028
H      -2.089620    1.371800   -0.076740
H      -1.768248   -2.334996   -1.460841
H      -1.657740   -0.862593   -2.465180
H       1.805826   -0.854233   -0.815606
