17

C      -0.048082    1.485140   -0.011419
C       0.071775   -0.024559    0.099296
O       0.925151   -0.555732   -0.975629
C       1.949865   -1.253305   -0.261654
C       1.141388   -2.012787    0.839564
O       1.910229   -2.695301    1.795767
C       0.820756   -0.566294    1.331557
C       2.276666   -0.257757    0.883255
O       3.199159    0.381828    1.277668
H       0.922076    1.973322    0.116983
H      -0.441467    1.753472   -0.996023
H      -0.735678    1.870524    0.748772
H      -0.918254   -0.486780   -0.001135
H       2.667973   -1.709197   -0.940014
H       0.288473   -2.589495    0.462421
H       2.302925   -3.468942    1.377951
H       0.430004   -0.351724    2.322955
