20

C      -0.546069    1.277254    0.030537
N       0.905709    1.014969   -0.024360
C      -0.026788   -0.106821    0.034612
C      -0.049085   -1.171795    1.136856
C      -0.415640   -2.241476    0.061390
C      -1.890499   -2.658823   -0.048579
C      -2.524910   -1.514976   -0.861258
O      -1.505946   -1.073215   -1.756845
C      -0.278157   -1.159016   -1.062731
H      -0.890732    1.729967    0.956900
H      -1.055349    1.618545   -0.867163
H       1.242109    1.134616   -0.978224
H       0.928861   -1.330450    1.597992
H      -0.789298   -1.023686    1.929133
H       0.264773   -3.091569    0.011088
H      -1.970161   -3.597705   -0.604896
H      -2.373489   -2.799086    0.922575
H      -3.385303   -1.821497   -1.461089
H      -2.839901   -0.693205   -0.200771
H       0.521116   -1.266757   -1.801933
