21

C       0.067926    1.380850    0.103044
O       0.006145   -0.024540    0.086675
C      -1.309953   -0.516665   -0.047412
C      -1.257620   -2.029754   -0.044742
C      -0.901890   -2.771625    1.279876
C      -2.036173   -3.801875    0.993667
C      -2.571622   -2.822075   -0.051906
C      -3.942622   -2.337089   -0.233791
O      -3.304919   -3.177148   -1.207001
H       1.118324    1.662014    0.211450
H      -0.322680    1.819000   -0.829428
H      -0.502325    1.806406    0.944476
H      -1.941874   -0.154640    0.783235
H      -1.765128   -0.150259   -0.984877
H      -0.614940   -2.370244   -0.863776
H       0.112223   -3.162863    1.363672
H      -1.113726   -2.154286    2.157054
H      -1.661522   -4.715855    0.523574
H      -2.699344   -4.075009    1.817717
H      -4.756482   -2.800969    0.322934
H      -4.128375   -1.312551   -0.554240
