16

C      -0.007361    1.490009   -0.050103
C      -0.026644   -0.019020   -0.002074
C      -0.809780   -0.734939    1.054861
C       0.711120   -0.754219    1.131372
C       1.461702   -1.973553    0.782646
O       2.290747   -2.508617    1.458551
O       1.176253   -2.521142   -0.465093
C       0.523924   -1.774894   -1.415119
N      -0.007101   -0.639102   -1.291600
H       0.901326    1.850275   -0.541607
H      -0.867314    1.856378   -0.618663
H      -0.047263    1.915950    0.956312
H      -1.307746   -0.141103    1.812823
H      -1.324057   -1.648064    0.777635
H       1.174952   -0.184234    1.927209
H       0.526197   -2.306592   -2.362271
