18

C       0.208792    1.515606   -0.084444
C       0.458606    0.015340   -0.015443
O       1.171459   -0.502295    0.818128
N      -0.175247   -0.702462   -1.009397
C      -0.104151   -2.107105   -1.127609
C       1.200570   -2.860900   -1.227634
C       0.185625   -3.008796   -2.316064
O      -0.830313   -3.940647   -1.941803
C      -1.229326   -3.099784   -0.825299
H       0.718577    1.946493   -0.952925
H      -0.857736    1.745679   -0.175910
H       0.602994    1.976184    0.820607
H      -0.812239   -0.208323   -1.615377
H       2.050197   -2.228695   -1.461285
H       1.407433   -3.690314   -0.558059
H       0.343421   -2.816769   -3.371188
H      -1.199975   -3.627583    0.134603
H      -2.231204   -2.686073   -0.994752
