19

O      -0.103461    1.314828    0.562506
C      -0.010722    0.064486   -0.116835
C      -1.353943   -0.601106   -0.015875
C      -1.594792   -2.101058   -0.068966
C      -0.445725   -3.073062    0.199857
C      -0.044411   -2.769541    1.629990
C      -0.821248   -1.833109    2.178402
C      -1.849573   -1.331966    1.216131
O      -3.146369   -1.095051    1.674808
H       0.740677    1.766461    0.469059
H       0.246733    0.211013   -1.178258
H       0.768018   -0.568044    0.329790
H      -2.147109   -0.035855   -0.501110
H      -2.432755   -2.433057   -0.669707
H      -0.771591   -4.115262    0.086699
H       0.392611   -2.940243   -0.496762
H       0.799427   -3.250497    2.112153
H      -0.740232   -1.445155    3.187284
H      -3.200515   -0.168961    1.933873
