16

N      -0.253659    1.405443    0.089975
C      -0.112408   -0.023666    0.106012
C      -0.733584   -0.806995    1.219320
C      -1.391930   -0.837975   -0.154435
N      -2.578604   -0.070187   -0.353550
C      -3.805246   -0.504556    0.063241
O      -4.029000   -1.601669    0.519458
C      -1.260556   -2.033305   -0.952540
N      -1.103408   -2.980739   -1.596618
H       0.154622    1.824822    0.918031
H       0.207063    1.807259   -0.718813
H       0.783003   -0.454341   -0.337204
H      -0.227121   -1.699763    1.564851
H      -1.291896   -0.263836    1.972903
H      -2.428110    0.912766   -0.540559
H      -4.583135    0.269947   -0.086480
