20

C      -0.341383    1.294044   -0.192012
C       1.077622    1.119599    0.290733
C       0.224070   -0.088488   -0.004131
C      -0.244680   -0.964544    1.128565
O      -0.553376   -0.220287    2.333611
C      -1.885237   -0.783503    2.424395
C      -1.674710   -1.523451    1.112090
C      -2.571289   -1.761752   -0.032878
N      -2.121730   -2.876662    0.831629
H      -1.065661    1.638030    0.537378
H      -0.507866    1.648573   -1.203065
H       1.892190    1.350480   -0.386492
H       1.271422    1.342756    1.333517
H       0.472078   -0.646568   -0.904118
H       0.509209   -1.740333    1.339796
H      -1.999963   -1.433530    3.300251
H      -2.657957   -0.005777    2.437636
H      -3.630048   -1.527308    0.041761
H      -2.156518   -1.669312   -1.033609
H      -1.384614   -3.407394    0.371745
