13

C      -0.215946    1.391010    0.022728
O      -0.072107   -0.032872   -0.042860
C       0.678219   -0.517424   -1.028369
N       1.236145    0.291407   -1.869505
O       2.009232   -0.307597   -2.875671
C       2.165421   -1.661583   -2.964714
O       2.834819   -2.140010   -3.839655
C       1.458274   -2.433031   -1.922106
N       0.749283   -1.903292   -0.997542
H       0.758108    1.870385    0.153589
H      -0.677482    1.773519   -0.891808
H      -0.856026    1.576714    0.884510
H       1.565365   -3.515005   -1.968911
