19

O      -0.639792    0.752591    0.774461
C       0.005846    1.024223   -0.204640
C       1.321929    1.766795   -0.200600
C       1.271010    3.022543   -1.089365
C       2.615158    3.734676   -1.190849
C       3.792022    3.036586   -1.978796
C       3.814477    4.247790   -2.918897
O       2.510587    4.349024   -3.504875
C       2.710647    4.898204   -2.197021
H      -0.350682    0.736924   -1.222577
H       1.581698    2.011081    0.833916
H       2.087954    1.080723   -0.591170
H       0.942773    2.753568   -2.100032
H       0.522380    3.717984   -0.688123
H       2.962121    4.050697   -0.201354
H       4.697017    2.927700   -1.377185
H       3.561388    2.086194   -2.467811
H       4.641404    4.670462   -3.477183
H       2.465546    5.945205   -2.057826
