16

O      -0.031942    0.017481    0.025618
C      -0.076637    1.213046    0.018825
C      -1.314950    2.097072    0.059645
C      -1.534551    2.563625   -1.422489
C      -0.536588    3.699599   -1.120881
C       0.943553    3.287456   -0.892113
C       0.799070    3.336008    0.586312
C      -0.741208    3.507012    0.412738
N       1.101867    2.050748   -0.057304
H      -2.146529    1.654448    0.604792
H      -1.303851    1.847236   -2.215873
H      -2.546687    2.949902   -1.569621
H      -0.636439    4.671953   -1.603772
H       1.785924    3.513874   -1.534369
H       1.451717    3.694912    1.372381
H      -1.313481    4.191613    1.031556
