21

C      -0.119585    1.646464   -0.000092
C      -0.138007    0.115668   -0.033677
C       0.732674   -0.491889   -1.154093
C       2.229644   -0.244464   -1.050296
C       2.945142   -1.359595   -1.237068
C       2.077342   -2.563368   -1.390154
C       1.234760   -2.875195   -0.169151
O       1.550544   -2.413397    1.109239
C       0.644521   -2.019493   -1.262100
H       0.879070    2.037861    0.220952
H      -0.434867    2.069794   -0.960933
H      -0.797610    2.029463    0.768889
H       0.175845   -0.293810    0.931069
H      -1.168625   -0.227635   -0.186752
H       0.384215   -0.051391   -2.102324
H       2.647714    0.739654   -0.870036
H       4.028412   -1.414902   -1.241288
H       2.362300   -3.360116   -2.068811
H       0.848364   -3.887800   -0.106991
H       2.183863   -1.690846    1.004606
H      -0.165821   -2.442246   -1.846075
