21

C      -0.194456    1.633004    0.186481
C      -0.074363    0.114607    0.013456
C       0.756936   -0.524089    1.119824
C       0.152620   -0.596633    2.541102
O       0.416432   -2.010722    2.633022
C       0.834557   -2.083238    1.267597
C      -0.133836   -2.868074    0.382713
C       0.445373   -3.391324   -0.919534
O      -1.285344   -3.040423    0.702514
H       0.789479    2.114583    0.167748
H      -0.797882    2.073781   -0.612271
H      -0.670297    1.887851    1.139652
H      -1.073381   -0.335881   -0.000310
H       0.381077   -0.103443   -0.961312
H       1.761329   -0.090402    1.127424
H       0.664971   -0.031763    3.327705
H      -0.923795   -0.385484    2.584977
H       1.844895   -2.504076    1.171674
H       1.061152   -2.632396   -1.414530
H       1.102476   -4.243657   -0.707667
H      -0.357853   -3.715700   -1.582078
