21

C       0.196367    1.549977   -0.062816
C      -0.010943    0.028845   -0.080597
C      -1.449379   -0.387825    0.005806
N      -1.938918   -1.709246   -0.454184
C      -2.528326   -0.460800   -1.010806
C      -3.555884    0.108028    0.016703
C      -2.489874    0.169590    1.048147
N      -3.612905   -0.771502    1.195963
C      -4.591010   -0.324370    2.184027
H       1.258803    1.797852   -0.144790
H      -0.328771    2.028315   -0.895633
H      -0.175050    1.995322    0.865443
H       0.416318   -0.386400   -1.002938
H       0.548142   -0.427831    0.747837
H      -1.262946   -2.029622   -1.150261
H      -2.511363   -0.250252   -2.072970
H      -4.351102    0.809467   -0.202229
H      -2.293804    0.926779    1.797246
H      -4.710088    0.772256    2.242975
H      -5.564923   -0.760706    1.941015
H      -4.289384   -0.688301    3.171285
