18

C       0.177690    1.348635   -0.428020
C       0.023818   -0.057036    0.166345
O       0.557413   -0.107327    1.482100
C      -1.412450   -0.563649    0.099810
C      -2.091456   -0.988692    1.243816
N      -3.352279   -1.434063    1.253870
C      -3.994011   -1.484906    0.086215
C      -3.412485   -1.107474   -1.122043
C      -2.104937   -0.640853   -1.111030
H       1.222921    1.662724   -0.364384
H      -0.132340    1.384752   -1.475900
H      -0.439957    2.066842    0.124555
H       0.655441   -0.748608   -0.406309
H       0.163220    0.611799    1.988840
H      -1.578655   -0.980997    2.200349
H      -5.018457   -1.849073    0.114601
H      -3.973526   -1.179172   -2.047422
H      -1.625346   -0.345474   -2.039752
