22

C      -0.541394    1.409439    0.137503
C      -0.085329   -0.009289    0.004811
C      -0.207184   -0.804900   -1.059858
C       0.410744   -2.161793   -0.843720
C       0.660504   -2.219642    0.697861
C      -0.512910   -2.950146    1.372981
C       1.979721   -2.915261    1.049989
C       0.645888   -0.719435    1.123724
H       0.301361    2.079535    0.352622
H      -1.031053    1.764084   -0.773853
H      -1.246763    1.524705    0.970709
H      -0.667698   -0.511896   -1.998349
H      -0.229191   -2.986280   -1.183033
H       1.352121   -2.257511   -1.404738
H      -0.567352   -3.994396    1.045661
H      -0.405345   -2.945458    2.463512
H      -1.465330   -2.469324    1.125829
H       2.831879   -2.409960    0.582546
H       2.148541   -2.922361    2.133041
H       1.981512   -3.957048    0.709229
H       1.665679   -0.319011    1.226056
H       0.166020   -0.574139    2.100858
