18

C      -0.032347    1.501225    0.023733
N      -0.043474    0.057968    0.103825
C      -1.297193   -0.627411    0.486799
C      -0.466245   -1.570896    1.352707
C      -0.801297   -2.519378    2.406538
O      -0.353081   -2.950186    1.108656
C       0.713876   -0.582157    1.211487
C       2.037357   -1.087263    0.898899
C       3.137785   -1.508895    0.663846
H       0.984723    1.848910   -0.182157
H      -0.673128    1.830006   -0.800646
H      -0.385347    1.993123    0.950979
H      -1.985703   -0.002928    1.079997
H      -1.843321   -1.081694   -0.345918
H      -0.098884   -2.693256    3.220615
H      -1.844856   -2.732679    2.634383
H       0.766133    0.064293    2.106482
H       4.104244   -1.889208    0.442268
