14

O       0.160721    1.383574    0.003973
C       0.072765   -0.009206    0.177370
C      -1.393044   -0.466072    0.000265
O      -1.873252    0.012802   -1.231069
C      -1.513089   -1.982444    0.046192
O      -1.847567   -2.597387   -0.948911
C      -1.193403   -2.631390    1.294635
C      -0.926316   -3.141957    2.351436
H      -0.299850    1.573223   -0.823719
H       0.700450   -0.552669   -0.548143
H       0.429976   -0.242273    1.184660
H      -1.987059   -0.035731    0.819713
H      -2.019027   -0.775175   -1.780339
H      -0.692431   -3.607817    3.278510
