21

C      -0.096042    1.427905    0.418497
C      -0.049473   -0.012486   -0.098064
C      -1.419877   -0.697523   -0.089838
C      -1.362581   -2.138071   -0.611801
N      -2.657799   -2.796878   -0.621980
C      -3.000272   -3.768612    0.276132
C      -4.422836   -4.294649    0.147823
O      -2.231157   -4.192592    1.120342
H       0.895854    1.889986    0.401709
H      -0.762230    2.047081   -0.192676
H      -0.463930    1.466086    1.449667
H       0.356271   -0.023344   -1.118621
H       0.649826   -0.598903    0.511917
H      -1.827000   -0.708483    0.928815
H      -2.124695   -0.114330   -0.699680
H      -0.941058   -2.153091   -1.625478
H      -0.719548   -2.748630    0.026638
H      -3.358341   -2.464402   -1.263547
H      -4.972458   -3.884475   -0.703740
H      -4.386261   -5.383094    0.058864
H      -4.968345   -4.061183    1.066529
