14

N      -0.040581    1.170162   -0.606635
C       0.028660    0.054569   -0.013723
N      -1.144016   -0.593884    0.373018
C      -1.167349   -1.882914    0.832396
C      -0.032947   -2.469544    1.263975
C       1.207994   -1.609753    1.274062
O       1.173959   -0.625662    0.221514
C       0.015717   -3.803711    1.725122
N       0.093897   -4.892957    2.117487
H       0.892295    1.518584   -0.816049
H      -1.988459   -0.139606    0.064634
H      -2.128234   -2.381645    0.825375
H       1.321911   -1.089966    2.235646
H       2.109938   -2.196256    1.093408
