19

C       0.113155    1.517018    0.139598
C       0.074798    0.034090   -0.036005
C       0.391856   -0.772394   -1.109745
C       0.153368   -2.101237   -0.670866
N      -0.281023   -2.116787    0.588157
N      -0.319436   -0.813697    0.948358
C       0.322141   -3.370973   -1.404316
C       0.029557   -3.455754   -2.888678
C       1.448346   -3.548103   -2.402443
H       0.806231    1.816584    0.934429
H       0.442622    1.994539   -0.785347
H      -0.872955    1.923939    0.391921
H       0.745248   -0.439997   -2.073168
H      -0.623816   -0.576918    1.877227
H       0.061327   -4.238338   -0.808212
H      -0.451376   -4.354092   -3.259711
H      -0.282922   -2.543797   -3.385857
H       2.102707   -2.699112   -2.568344
H       1.947381   -4.510235   -2.437639
