20

C      -0.063097    1.625228   -0.059201
C       1.476995    1.502883    0.027680
N       1.310884    0.097723    0.465517
C      -0.072703    0.077877   -0.062747
C       2.238571   -0.880678   -0.014486
C       3.601260   -1.086164    0.708883
C       2.872616   -1.693480    1.929660
C       2.286043   -2.295590    0.632183
O       3.660276   -2.433857    0.097677
H      -0.503320    2.046520    0.846176
H      -0.475548    2.129233   -0.933218
H       1.955821    1.588965   -0.961426
H       2.011970    2.144918    0.734855
H      -0.799647   -0.440468    0.570794
H      -0.135011   -0.333635   -1.083428
H       2.339326   -0.920632   -1.112210
H       4.504225   -0.476173    0.665062
H       3.471626   -2.382674    2.525507
H       2.232109   -1.034038    2.514497
H       1.608330   -3.139133    0.496182
