16

O      -0.084875    1.367211    0.216264
C      -0.002896   -0.042708    0.073396
C      -1.433849   -0.548994   -0.115716
C      -1.530135   -2.093015   -0.104793
N      -1.795648   -2.356079    1.300333
C      -2.377350   -1.251857    1.918105
O      -2.858760   -1.217768    3.027352
N      -2.292769   -0.203053    1.007960
H       0.771820    1.698777    0.499005
H       0.604661   -0.325026   -0.801369
H       0.436167   -0.516264    0.964050
H      -1.828225   -0.130041   -1.046954
H      -2.344185   -2.433121   -0.759480
H      -0.600779   -2.564723   -0.441455
H      -2.101943   -3.263967    1.611295
H      -2.235085    0.731390    1.383776
