20

C      -0.016363    1.480631   -0.056138
C       0.008240   -0.029059   -0.105887
C       0.792699   -0.709530   -1.150033
N       1.309515   -0.615377    0.283975
C       1.197091   -2.129940    0.379947
C      -0.129896   -2.783890    0.850739
C      -0.600256   -2.914514   -0.636694
C       0.728122   -2.243000   -1.099627
O       1.455871   -2.797162   -2.150977
H       0.929073    1.893350   -0.418083
H      -0.829450    1.875356   -0.674593
H      -0.165268    1.829408    0.970725
H      -0.904256   -0.497147    0.254176
H       1.283245   -0.183048   -1.963981
H       2.134408   -2.547381    0.748722
H       0.034900   -3.749138    1.335620
H      -0.757734   -2.181889    1.510826
H      -0.669547   -3.954268   -0.972755
H      -1.526821   -2.405732   -0.916270
H       1.505365   -3.749997   -2.020928
