17

C       0.062343    1.469831   -0.011294
N       0.013079    0.016470   -0.006456
C      -0.044348   -0.673654    1.186664
N      -0.056430   -0.081230    2.317526
C       0.024437   -0.656082   -1.225569
N      -0.018114   -1.986814   -1.295972
N       0.010430   -2.246194   -2.623948
C       0.068676   -1.132638   -3.382241
C       0.080297   -0.062208   -2.512954
H       0.979031    1.827580   -0.493813
H      -0.800061    1.887759   -0.543034
H       0.044823    1.801698    1.025264
H      -0.076413   -1.752631    1.028678
H      -0.101018   -0.769388    3.065082
H      -0.014598   -3.203750   -2.927292
H       0.097498   -1.177169   -4.459418
H       0.122584    0.981905   -2.769212
