15

C      -0.674989   -1.329571   -0.089511
C      -0.329520   -0.180489   -0.031834
C       0.064940    1.212588    0.040091
C      -0.137045    1.976974    1.426920
C       1.362532    2.191858    1.356121
N       2.455198    2.783678    1.767360
C       3.378165    2.403120    0.800138
C       2.823883    1.614279   -0.190482
N       1.516966    1.478861    0.221688
H      -0.974933   -2.347550   -0.139119
H      -0.345630    1.775009   -0.804444
H      -0.760930    2.870134    1.351565
H      -0.501127    1.337187    2.232579
H       4.409914    2.713646    0.875134
H       3.240491    1.141281   -1.062573
