12

C      -0.034958    1.483221    0.022406
C      -0.010441   -0.010676   -0.017154
N      -0.051563   -0.570401   -1.170351
O      -0.026217   -1.996406   -1.166284
C       0.036444   -2.616682    0.002044
F       0.049861   -3.905313   -0.203422
N       0.080189   -2.147714    1.181306
C       0.060232   -0.757552    1.284866
O       0.096208   -0.166002    2.336271
H       0.859794    1.848902    0.535079
H      -0.087670    1.897419   -0.984633
H      -0.892110    1.818049    0.614251
