19

C       0.067912    1.319910   -0.178684
C       0.396819   -0.154447    0.067809
C       0.916487   -0.399357    1.489096
N       1.257185   -1.793145    1.738358
C       0.489021   -2.604731    2.500922
O      -0.525977   -2.269231    3.078314
C       0.972775   -4.069966    2.641635
C       2.182014   -4.415305    1.907397
N       3.144012   -4.630379    1.302742
H       0.951915    1.953198   -0.044546
H      -0.301290    1.476277   -1.196137
H      -0.702540    1.674664    0.514261
H      -0.493914   -0.773082   -0.090985
H       1.147514   -0.495240   -0.656934
H       1.802360    0.219153    1.678796
H       0.156129   -0.130004    2.225866
H       2.066770   -2.181872    1.278838
H       1.119387   -4.257624    3.709805
H       0.146418   -4.711844    2.321567
