22

C      -0.101637    1.558638   -0.019582
C      -0.201843    0.035018   -0.053241
N       0.653626   -0.527226   -1.087301
C       2.132850   -0.544765   -0.869892
C       2.130478   -2.054445   -1.154083
C       1.248506   -2.768212   -0.157557
C       0.635169   -1.972937   -1.302571
O       3.022908   -2.700544   -1.975831
C       4.217122   -3.086521   -1.314903
H       0.915657    1.882664    0.225788
H      -0.363089    1.981937   -0.993611
H      -0.773740    1.975078    0.737062
H       0.020344   -0.371909    0.951405
H      -1.230865   -0.263532   -0.288279
H       2.665492    0.045416   -1.622356
H       2.462492   -0.242455    0.133458
H       1.205700   -3.843596   -0.302200
H       1.165736   -2.440560    0.875336
H      -0.028681   -2.422414   -2.033064
H       4.772636   -2.216493   -0.936933
H       4.008551   -3.760787   -0.472802
H       4.834084   -3.607297   -2.050347
