16

C       0.156483    1.491504   -0.367537
C       0.082475    0.000015   -0.117740
C       1.377597   -0.812178    0.005542
C       0.574770   -0.562622    1.231004
O       0.981119    0.373431    2.172899
C      -1.057633   -0.770577   -0.672749
O      -1.173723   -1.974834   -0.602769
C      -2.121622    0.015391   -1.335815
N      -2.960009    0.612971   -1.862267
H       0.941142    1.930427    0.249870
H       0.372550    1.709674   -1.417893
H      -0.783554    1.986191   -0.106523
H       1.365314   -1.810380   -0.417073
H       2.291876   -0.242980   -0.124833
H      -0.016037   -1.391701    1.616868
H       1.830513    0.094708    2.530787
