18

C      -0.283003    1.178433    0.057848
O       0.626455    0.089375   -0.142344
C       0.893020   -0.638587    0.955444
C       0.628396   -1.939745    1.249506
N      -0.134491   -2.851254    0.495607
C       1.224501   -2.166596    2.539595
C       1.791984   -0.993757    2.929787
C       2.540341   -0.579181    4.144542
O       1.597163   -0.040795    1.970278
H       0.139621    1.916836    0.746972
H      -0.436344    1.637717   -0.920438
H      -1.239605    0.817405    0.454033
H      -0.289208   -2.499419   -0.442342
H       0.316714   -3.756292    0.426293
H       1.214738   -3.088237    3.101672
H       3.553203   -0.237201    3.900950
H       2.037312    0.241592    4.669378
H       2.622110   -1.423411    4.833056
