22

C       2.444280    0.393799    0.999503
C       1.225983   -0.472312    0.667990
C      -0.082422    0.291353    0.882911
N       1.322774   -0.870712   -0.738907
C       2.170282   -1.990574   -1.097316
C       0.676392   -2.102200   -1.236797
C      -0.077582   -3.061992   -0.325228
C       0.083432   -1.966817   -2.548905
C      -0.430255   -1.892475   -3.633443
H       3.375713   -0.160704    0.848584
H       2.467874    1.278612    0.356022
H       2.409434    0.721157    2.043172
H       1.240714   -1.346512    1.340907
H      -0.118651    1.168278    0.229351
H      -0.952035   -0.332351    0.657135
H      -0.165650    0.626162    1.921496
H       2.797585   -1.863035   -1.975247
H       2.616215   -2.580237   -0.295014
H       0.415386   -3.182413    0.641180
H      -1.102378   -2.718521   -0.155743
H      -0.132793   -4.046013   -0.799931
H      -0.875415   -1.808981   -4.593701
