23

C       0.615925    1.480825   -0.726024
C       0.039425    0.079023   -0.554978
C      -1.391517   -0.001894   -1.071559
O       0.881704   -0.919349   -1.201059
C       1.243148   -1.554456    0.059737
C       0.833993   -3.021958    0.064947
C       2.730663   -1.388924    0.353934
C       0.289617   -0.591315    0.830041
O       0.774816    0.170114    1.903288
H       1.663014    1.535703   -0.412805
H       0.580319    1.768120   -1.781487
H       0.042884    2.212614   -0.148125
H      -1.428976    0.248939   -2.136733
H      -1.792748   -1.011521   -0.947454
H      -2.038872    0.697356   -0.531109
H       1.390772   -3.577542   -0.696788
H       1.037836   -3.477757    1.040037
H      -0.232710   -3.128539   -0.150735
H       3.047604   -0.343219    0.294254
H       2.976981   -1.769011    1.350288
H       3.316844   -1.945425   -0.383972
H      -0.597696   -1.100147    1.215443
H       1.562547    0.643101    1.617397
