19

O       0.434266    0.812579    0.818372
C      -0.014738   -0.314953    0.088754
C      -1.503761   -0.282927   -0.174082
C      -1.995522    0.599566   -1.295311
C      -1.738938   -0.863543   -1.558106
C      -0.391625   -1.241945   -2.163629
C       0.599826   -0.459381   -1.311102
C       1.529931    0.535832   -1.853839
O       1.995014   -0.738690   -1.380766
H       1.344537    0.638113    1.081553
H       0.220675   -1.237375    0.645644
H      -2.171345   -0.500815    0.650873
H      -3.030936    0.916877   -1.243421
H      -1.325428    1.343029   -1.713162
H      -2.588148   -1.510134   -1.746070
H      -0.211406   -2.317289   -2.043288
H      -0.303749   -1.011050   -3.230029
H       1.589508    0.678903   -2.932039
H       1.812399    1.392405   -1.246929
