23

C       0.466771    0.296373   -1.492474
C      -0.010232    0.167068   -0.039982
C      -1.377882   -0.496484    0.071970
C      -1.578341   -2.060182    0.090611
C      -1.243828   -3.050013   -0.992390
C      -1.047031   -2.063647    1.559582
C      -2.007932   -0.840704    1.444655
O      -2.290991    0.125199    2.394240
C      -2.993802   -1.779366    0.686627
H       1.429380    0.814279   -1.548409
H       0.588835   -0.684402   -1.964040
H      -0.251172    0.863724   -2.095259
H       0.745727   -0.368910    0.543052
H      -0.080641    1.166906    0.407372
H      -2.082886    0.009854   -0.600918
H      -0.169066   -3.062659   -1.203233
H      -1.536272   -4.064728   -0.699935
H      -1.765736   -2.807293   -1.924479
H      -1.389631   -2.894097    2.185583
H       0.014175   -1.867658    1.718624
H      -2.657195   -0.308466    3.172371
H      -3.720404   -1.298991    0.025077
H      -3.443134   -2.593772    1.263780
