16

O      -0.183235    1.473626    0.010248
C      -0.016883    0.090410    0.018873
C      -0.428919   -0.696475   -1.203191
C      -1.273880   -0.821421    0.048404
N      -0.990059   -2.046980    0.794323
C       0.148516   -1.815529    1.298196
O       1.233996   -2.588970    1.615363
C       2.087772   -1.504902    1.068771
C       0.866716   -0.524164    1.083528
H       0.451689    1.850179   -0.608948
H      -0.834791   -0.087765   -2.004678
H       0.127745   -1.571563   -1.523729
H      -2.278744   -0.418274    0.071552
H       2.909054   -1.277264    1.749173
H       2.451194   -1.790574    0.078683
H       0.907179    0.132067    1.956585
