16

C      -0.026641    1.400305    0.073697
N       0.002099   -0.041756    0.041226
C      -1.184222   -0.877793    0.080211
C      -0.596111   -2.278245    0.019434
C       0.730131   -2.211605   -0.055228
C       1.165689   -0.782404   -0.047334
O       2.291607   -0.333580   -0.109612
C      -2.015742   -0.660408    1.267628
C      -2.706485   -0.474126    2.232586
H       1.010531    1.740478    0.073353
H      -0.538696    1.814221   -0.804311
H      -0.530698    1.764769    0.975586
H      -1.806620   -0.701474   -0.813717
H      -1.228889   -3.154431    0.045429
H       1.440228   -3.023574   -0.117139
H      -3.312670   -0.313162    3.090079
