20

C       1.102831    0.526413   -1.074952
C       0.049349    0.013045   -0.074456
C       0.687450   -0.602568    1.147621
C       0.834037   -2.100166    1.240064
C      -0.511749   -2.806615    1.547944
C      -0.387935   -4.258131    1.569106
C      -0.255982   -5.452810    1.578963
N       1.146400    0.061561    2.139876
O       0.969249    1.447505    1.975571
H       1.760438   -0.281835   -1.410799
H       0.617243    0.952928   -1.957687
H       1.719585    1.299788   -0.611990
H      -0.586953    0.846193    0.236939
H      -0.589586   -0.729394   -0.563882
H       1.227240   -2.490898    0.293910
H       1.552739   -2.342916    2.025599
H      -0.883027   -2.450086    2.516255
H      -1.265157   -2.516779    0.804712
H      -0.153315   -6.509426    1.592497
H       1.345744    1.795094    2.790623
