17

C      -0.047678    1.425192   -0.228985
N       0.118263   -0.012984   -0.060412
C       1.474129   -0.524387   -0.050021
C       0.666785   -0.468233    1.210322
C       0.980442    0.310004    2.507849
C       0.569097   -0.946811    3.338641
C       0.158078   -1.644092    2.021410
O      -0.346605   -2.694293    1.751602
H       0.756966    2.023306    0.227941
H      -0.077006    1.649117   -1.299421
H      -1.001476    1.733812    0.209424
H       1.627603   -1.478982   -0.546342
H       2.299207    0.184754   -0.123590
H       2.016018    0.631674    2.630537
H       0.324319    1.168478    2.671573
H       1.391362   -1.453421    3.851652
H      -0.250428   -0.809226    4.048590
