17

C       0.039056    1.468489   -0.080206
C      -0.016840   -0.019020    0.023226
O       0.642015   -0.855926   -1.006728
C       0.066772   -1.844156   -0.089691
C       0.576704   -0.976140    1.101802
O      -0.091085   -1.044643    2.338021
C      -1.373939   -1.605231    2.178910
O      -2.069699   -1.057652    1.082828
C      -1.236498   -0.988045   -0.048442
H       1.074140    1.822718   -0.056011
H      -0.427456    1.812968   -1.008196
H      -0.499001    1.911201    0.763773
H       0.225695   -2.894936   -0.329341
H       1.655191   -0.929080    1.257180
H      -1.277917   -2.695640    2.038836
H      -1.947662   -1.386970    3.081029
H      -1.836972   -0.952001   -0.958182
