21

C      -0.250664    1.276928   -0.130598
O      -0.136187   -0.136647   -0.212554
C       0.762161   -0.636604   -1.218101
C       2.194953   -0.185350   -0.972135
C       0.520313   -2.149790   -1.242109
C      -0.786475   -2.241420   -2.049379
O      -1.935626   -2.074001   -1.242511
C      -0.591706   -1.097042   -3.066861
O       0.368289   -0.188647   -2.499397
H       0.626641    1.728436    0.349890
H      -0.388437    1.721892   -1.121839
H      -1.128444    1.485322    0.485317
H       2.502530   -0.441182    0.045097
H       2.863826   -0.676754   -1.682214
H       2.294136    0.893531   -1.111959
H       1.343081   -2.639852   -1.770929
H       0.422516   -2.580511   -0.245078
H      -0.905359   -3.204161   -2.552896
H      -1.742535   -1.322390   -0.663918
H      -0.192946   -1.455862   -4.023584
H      -1.540400   -0.582203   -3.248307
