17

C      -0.005470    1.399040   -0.038766
N       0.015647   -0.039616    0.144063
C      -1.190631   -0.725845    0.055669
C      -2.458087   -0.183636    0.045010
N      -3.360705   -1.239545    0.008632
C      -2.709588   -2.419592   -0.016118
C      -1.343773   -2.160475    0.016590
C      -0.308934   -3.175222    0.034414
O      -0.501035   -4.375352   -0.014750
H       1.016316    1.782631    0.004115
H      -0.461208    1.714589   -0.991982
H      -0.571878    1.866435    0.774715
H       0.772063   -0.493157   -0.345780
H      -2.799001    0.836615    0.064097
H      -4.360037   -1.132097   -0.003348
H      -3.221922   -3.366784   -0.048731
H       0.731425   -2.780536    0.106979
