18

C      -0.280444    1.401979    0.020318
C      -0.025341   -0.098130   -0.034682
C       1.202927   -0.560510   -0.802522
N       1.605354   -0.441634   -1.982592
O       1.790382   -1.178930    0.291693
C       0.687365   -0.776885    1.134104
C       0.875619   -0.352507    2.554026
C       0.146675   -1.648766    2.201445
O      -1.244510   -1.715575    2.285503
H       0.611357    1.944414    0.347414
H      -0.557713    1.770611   -0.970952
H      -1.097621    1.630199    0.711512
H      -0.927429   -0.637292   -0.336708
H       2.512621   -0.891135   -2.116636
H       1.865862   -0.437404    2.988872
H       0.280032    0.485299    2.903214
H       0.683997   -2.576335    2.399954
H      -1.488008   -1.771694    3.215785
