16

C      -0.412406    1.513445    0.011952
C      -0.260034    0.073332    0.430299
O       0.592280   -0.332398    1.183235
C      -1.286673   -0.920101   -0.179401
O      -2.139562   -0.491447   -0.929930
C      -1.124968   -2.373820    0.199122
C      -2.415843   -3.184667    0.421633
N      -3.395662   -2.974565   -0.497682
O      -2.489068   -3.990174    1.325375
H       0.354024    2.117797    0.496800
H      -0.334782    1.599546   -1.076590
H      -1.410441    1.877596    0.275313
H      -0.581744   -2.851155   -0.629479
H      -0.499207   -2.468856    1.084805
H      -3.359236   -2.148277   -1.077138
H      -4.282924   -3.421571   -0.328830
