17

C      -0.019170    1.527437    0.087234
C       0.011626    0.003988   -0.062273
N       0.713725   -0.444769   -1.261770
C       2.156942   -0.579590   -1.210661
C      -0.025023   -0.643563   -2.403071
N       0.686744   -1.128027   -3.502165
O      -1.215017   -0.379621   -2.478163
H       0.990133    1.951772    0.121342
H      -0.554022    1.971985   -0.755727
H      -0.532799    1.810101    1.011995
H       0.496160   -0.459122    0.805600
H      -1.008349   -0.378844   -0.122258
H       2.482370   -1.598083   -0.947879
H       2.604341   -0.304502   -2.168974
H       2.559498    0.099924   -0.454435
H       1.422462   -1.796943   -3.330793
H       0.055745   -1.408087   -4.238506
