18

C      -0.026495    1.502359    0.064682
C       1.474947    1.935044   -0.021633
C       2.144534    0.719767   -0.639779
N       2.892636    0.781669   -1.901932
C       3.518844    0.130861   -0.720305
C       3.308391   -1.351845   -0.611819
C       1.998444   -1.665409   -0.501850
C       1.220562   -0.437539   -0.410712
C       0.012377   -0.012951   -0.023366
H      -0.511099    1.847586    0.984996
H      -0.606581    1.931707   -0.764424
H       1.628539    2.834317   -0.620982
H       1.861979    2.128110    0.984358
H       2.572919    0.067646   -2.555714
H       4.430044    0.597979   -0.361575
H       4.123507   -2.065486   -0.644092
H       1.588925   -2.667088   -0.461370
H      -0.839614   -0.635191    0.226833
