19

C      -0.096219    1.428637   -0.232439
C       0.023165   -0.087254    0.037350
C       0.795583   -0.426373    1.317522
C       2.269682   -0.041999    1.263552
O       2.872976   -0.514209    2.458243
C      -1.372754   -0.707721    0.071543
O      -1.855013   -1.223250    1.055792
C      -2.117544   -0.647257   -1.180598
C      -2.722900   -0.612292   -2.220770
H       0.888626    1.872927   -0.396405
H      -0.703170    1.625490   -1.120047
H      -0.560582    1.935945    0.619763
H       0.529996   -0.536729   -0.829896
H       0.325498    0.063585    2.176549
H       0.730377   -1.501738    1.509703
H       2.740259   -0.494585    0.373760
H       2.383098    1.049112    1.171142
H       3.795688   -0.243789    2.457289
H      -3.272021   -0.588738   -3.130767
