21

C       0.064539    1.519038   -0.091259
C       0.000710    0.024798   -0.056714
C      -1.078267   -0.755322    0.105160
C      -2.513459   -0.361250    0.269288
C      -0.684713   -2.197040    0.099684
C      -1.377661   -3.238244    0.878037
O      -1.569341   -3.140194   -0.534624
C       0.798048   -2.252839   -0.268151
C       1.276293   -0.785280   -0.179009
H       0.689240    1.902919    0.726087
H       0.527758    1.868814   -1.022946
H      -0.919637    1.985343   -0.005713
H      -2.692871    0.676662   -0.019726
H      -3.149549   -1.007226   -0.344985
H      -2.848180   -0.476475    1.308501
H      -0.817620   -4.110518    1.216134
H      -2.246337   -2.988109    1.486658
H       1.366390   -2.926339    0.377995
H       0.882423   -2.633088   -1.290447
H       1.868873   -0.480539   -1.050759
H       1.921784   -0.619501    0.694698
