19

O      -0.151016    1.438778    0.107442
C      -0.012438    0.034498    0.049397
C       0.307094   -0.668023    1.417618
C      -1.156471   -1.062229    1.483649
O      -1.695675   -2.198043    2.136650
C      -2.917903   -1.467191    2.438792
C      -2.342227   -0.145117    1.877039
C      -2.632783    0.169143    0.382104
C      -1.402520   -0.685468   -0.018275
H       0.711806    1.814732    0.307524
H       0.664904   -0.258418   -0.762094
H       0.952666   -1.540556    1.272378
H       0.714099   -0.047098    2.222364
H      -3.782029   -1.875360    1.899734
H      -3.123947   -1.478899    3.514563
H      -2.254427    0.682436    2.580919
H      -3.586741   -0.223601    0.018442
H      -2.555817    1.223615    0.114969
H      -1.494008   -1.418926   -0.819691
