16

O      -0.055357    1.367095    0.001080
C      -0.008347   -0.017655   -0.070141
C       0.906484   -0.686120   -1.101215
C       0.095860   -1.872354   -1.574765
C      -1.108550   -1.919171   -1.000306
C      -1.287600   -0.801213   -0.030885
C      -0.351938   -0.799413    1.200272
C       0.386929   -1.956786    1.608354
N       1.009128   -2.875622    1.937994
H       0.774921    1.682694    0.375979
H       1.112978    0.022741   -1.913162
H       1.872531   -0.988865   -0.679358
H       0.485593   -2.596054   -2.280178
H      -1.863932   -2.676710   -1.167047
H      -2.246526   -0.317442    0.112931
H      -0.691527   -0.166144    2.013669
