19

C      -0.010535    1.440667   -0.252220
O       1.277425    1.795055    0.286934
C       1.553861    0.429253    0.652009
C       0.230318   -0.066294    0.016527
C      -0.749550   -0.759048    0.936814
C      -2.078056   -1.415244    0.451522
C      -1.297959   -2.596402   -0.173573
C      -0.727115   -2.289922    1.231652
O      -2.117876   -2.167084    1.727638
H      -0.834080    1.885568    0.323172
H      -0.113041    1.735956   -1.303331
H       2.479806    0.059633    0.195342
H       1.619098    0.299533    1.741117
H       0.398463   -0.628546   -0.903211
H      -0.908061   -0.184798    1.855135
H      -3.003148   -0.941903    0.120315
H      -1.862678   -3.526699   -0.238694
H      -0.676420   -2.421384   -1.053685
H      -0.028615   -2.867813    1.838020
