20

C      -0.203936    1.571198   -0.064315
C       0.067545    0.083955    0.024063
O       1.134958   -0.390039   -0.854256
C       1.748518   -1.131640    0.209129
C       2.913551   -0.446776    0.970433
N       2.637455    1.004027    0.996229
C       1.939198    0.122065    1.955240
C       0.746149   -0.589403    1.254381
C      -0.079428   -1.476763    2.157746
H       0.696045    2.145925    0.148035
H      -0.561581    1.823818   -1.068204
H      -0.991824    1.844671    0.647412
H      -0.853951   -0.467771   -0.219990
H       1.876956   -2.196805   -0.005566
H       3.922187   -0.817694    1.108479
H       3.408050    1.438616    1.503640
H       2.038772    0.277344    3.023737
H      -0.729947   -0.880910    2.809804
H      -0.715077   -2.152352    1.576364
H       0.559697   -2.089329    2.803954
