17

C       0.163090    1.454218   -0.492812
C       1.439756    1.579612    0.381107
C       1.292030    0.081614    0.779340
C      -0.176050    0.142186    0.264082
C       2.232269   -0.915740    0.047767
O       2.840658   -1.686410    1.111590
C       2.312699   -1.185751    2.252256
N       1.473238   -0.237766    2.200065
H      -0.563749    2.266313   -0.432112
H       0.395494    1.278811   -1.547135
H       2.373569    1.870173   -0.109012
H       1.284648    2.216263    1.255123
H      -0.859432    0.308882    1.099838
H      -0.529974   -0.712829   -0.319301
H       1.702419   -1.609602   -0.611727
H       3.032641   -0.426308   -0.515244
H       2.672104   -1.663502    3.157218
