21

C       0.032408    1.616989   -0.004529
C      -0.064670    0.093151   -0.013158
N       0.525541   -0.472417   -1.215799
C      -0.182035   -0.309002   -2.503290
C       0.255851   -1.741317   -2.890753
C       0.547802   -1.935598   -1.383056
C       1.864529   -2.627556   -0.999055
C       2.085086   -2.672915    0.444963
N       2.238007   -2.702262    1.590415
H       1.076615    1.936327   -0.066997
H      -0.507304    2.054695   -0.851218
H      -0.403030    2.023811    0.912842
H       0.470884   -0.318510    0.848856
H      -1.124798   -0.212918    0.092108
H      -1.275356   -0.228620   -2.386463
H       0.167097    0.521315   -3.124521
H      -0.494164   -2.393384   -3.338148
H       1.163261   -1.758248   -3.498876
H      -0.290034   -2.437123   -0.870914
H       1.866393   -3.654515   -1.383758
H       2.697343   -2.093139   -1.467966
