15

O       0.055826    1.481317    0.218518
C       0.053267    0.078886   -0.021445
C       0.653481   -0.752074    1.174856
O      -0.438387   -1.465051    1.854110
C      -1.464396   -1.339390    1.000913
C      -1.305905   -0.545924   -0.104841
C      -2.556891   -0.630092   -0.759061
N      -3.402457   -1.419068   -0.100770
N      -2.701444   -1.855162    1.001235
H      -0.715227    1.679586    0.761812
H       0.682376   -0.051551   -0.906846
H       1.358439   -1.511134    0.824497
H       1.135970   -0.100978    1.905428
H      -2.887462   -0.160362   -1.673993
H      -3.140237   -2.481592    1.653068
