17

O       0.055169    1.417591   -0.012177
C       0.029507   -0.001914   -0.029426
C      -1.443192   -0.536267   -0.059025
C      -1.679353   -0.688962   -1.532840
C      -2.641930   -0.842776   -2.503366
N      -1.958353   -0.936650   -3.681274
N      -0.612412   -0.851103   -3.545678
C      -0.457764   -0.704464   -2.238071
C       0.717311   -0.562431   -1.315674
H      -0.387626    1.724033   -0.812570
H       0.553227   -0.304246    0.880524
H      -1.519254   -1.497524    0.465903
H      -2.101018    0.170039    0.455041
H      -3.719245   -0.891721   -2.478367
H      -2.345511   -1.031172   -4.604791
H       1.498370    0.120301   -1.659300
H       1.188032   -1.534042   -1.119014
