19

O      -0.052334    1.424789   -0.219088
C       0.025162    0.006567   -0.072524
C       0.743929   -0.408026    1.198442
C       0.368434   -0.039313    2.425707
C      -0.845800    0.797173    2.772014
C      -2.183605    0.191833    2.300967
C      -2.426225    0.230155    0.774717
C      -1.405749   -0.555160   -0.030530
O      -1.666787   -1.593218   -0.591367
H       0.803936    1.786612    0.032025
H       0.513862   -0.449399   -0.942029
H       1.612038   -1.048664    1.073482
H       0.975446   -0.377586    3.262648
H      -0.886804    0.924465    3.858060
H      -0.740091    1.799745    2.340682
H      -2.257152   -0.843749    2.653473
H      -3.001610    0.743898    2.777918
H      -3.407600   -0.194838    0.548716
H      -2.404108    1.271421    0.437282
