18

C      -0.081987    1.581926   -0.147044
C       0.036209    0.070302   -0.013293
N       1.097179   -0.551456   -0.817685
C       1.760952   -1.145624    0.229657
O       2.731673   -1.849958    0.285082
C       0.752189   -0.541789    1.244109
C       1.320021    0.406748    2.310241
C       1.977751   -0.308281    3.397233
C       2.501277   -0.905938    4.298073
H       0.880732    2.076952    0.006064
H      -0.441184    1.849528   -1.146306
H      -0.800484    1.979769    0.577178
H      -0.943583   -0.392614   -0.185465
H       1.204658   -0.661480   -1.815824
H       0.155065   -1.320531    1.724799
H       2.028502    1.107696    1.853334
H       0.504318    1.016758    2.720348
H       2.979795   -1.435634    5.083953
