21

C      -0.068522    1.481979   -0.080824
C       0.044168   -0.009175    0.069338
C       1.352345   -0.749061   -0.096491
C       0.616865   -0.760793    1.246346
C       1.249552   -0.119223    2.452696
O       2.134608   -0.999359    3.136082
C      -0.326945   -1.936746    1.465334
C      -1.148002   -1.980387    0.161037
O      -1.121465   -0.661474   -0.382834
H       0.826350    1.984310    0.295077
H      -0.188947    1.747783   -1.136011
H      -0.938850    1.860625    0.464128
H       1.385064   -1.650230   -0.699818
H       2.251923   -0.143004   -0.156168
H       1.764166    0.810703    2.163783
H       0.482885    0.147872    3.189274
H       2.781205   -1.306999    2.491600
H       0.185066   -2.882738    1.661286
H      -0.966451   -1.721587    2.328966
H      -0.710499   -2.692214   -0.553102
H      -2.194152   -2.260272    0.311617
