18

C      -0.037660    1.548966    0.118457
C       1.504181    1.478143   -0.016996
O       2.068456    1.366023    1.284677
C       1.951218    0.037063    1.770053
C       2.925690   -0.856418    0.976011
N       1.829814   -1.151952   -0.004059
C       1.346402    0.061055   -0.740095
C      -0.030212    0.020090   -0.019531
C       0.798724   -0.757559    1.045557
H      -0.407938    2.010915    1.036566
H      -0.516609    2.011545   -0.750203
H       2.031285    2.274811   -0.544325
H       1.989147    0.075991    2.861381
H       3.815828   -0.358544    0.581950
H       3.208212   -1.786185    1.480052
H       1.494431    0.063117   -1.821475
H      -0.891490   -0.527228   -0.403551
H       0.335942   -1.560256    1.624970
