22

C      -0.031221    1.485835    0.040421
N       0.073493    0.029268    0.033294
C      -1.246727   -0.570819   -0.175729
C      -1.165435   -2.090053   -0.169088
O      -0.619064   -2.551163    1.050547
C       0.687326   -2.040501    1.224563
C       0.742782   -0.504716    1.232978
C       2.216051   -0.060069    1.235850
O       2.831649   -0.320373   -0.010258
H       0.957890    1.949019    0.044447
H      -0.547541    1.811731   -0.867506
H      -0.597220    1.867464    0.909521
H      -1.958568   -0.250706    0.608457
H      -1.639242   -0.222445   -1.138353
H      -2.164329   -2.526178   -0.258376
H      -0.553616   -2.436129   -1.018684
H       1.045648   -2.419059    2.185869
H       1.355176   -2.413206    0.432911
H       0.251507   -0.138227    2.154092
H       2.292891    1.004247    1.504966
H       2.761360   -0.620327    2.005047
H       2.123357   -0.219415   -0.663526
