16

C       0.080616    1.490572    0.048284
C      -0.069892    0.013679    0.033476
C      -1.140838   -0.830062   -0.014679
N      -2.504226   -0.506373   -0.006185
C      -0.604055   -2.174786    0.019959
C      -1.323038   -3.443670    0.020192
O      -0.796858   -4.536861    0.028736
C       0.755637   -2.025442    0.086209
O       1.093852   -0.731672    0.104673
H       0.854642    1.815173   -0.655363
H      -0.857981    1.969483   -0.246902
H       0.351083    1.877494    1.038718
H      -2.676645    0.479280   -0.156143
H      -3.045946   -1.043216   -0.671734
H      -2.432191   -3.350793    0.020474
H       1.556729   -2.744663    0.127051
