21

C       0.011421    1.580778    0.062368
C       0.001836    0.054145   -0.034057
C      -1.404046   -0.570874    0.054237
C      -1.359940   -2.091534   -0.156030
N      -2.103210   -0.209027    1.289221
C      -1.568527   -0.610278    2.580761
C      -3.277965    0.486054    1.252166
O      -3.939214    0.819033    2.214063
H       1.029039    1.971894   -0.028173
H      -0.589940    2.031765   -0.734902
H      -0.396664    1.924892    1.017280
H       0.440570   -0.260215   -0.988554
H       0.643611   -0.376993    0.744479
H      -2.007353   -0.138714   -0.754169
H      -0.723561   -2.585480    0.584977
H      -2.362508   -2.523428   -0.088690
H      -0.951896   -2.322645   -1.144641
H      -0.579132   -0.174512    2.756977
H      -2.258907   -0.247264    3.342150
H      -1.487504   -1.699466    2.660703
H      -3.577154    0.724525    0.212565
