21

C      -0.250632    1.585122   -0.184479
C      -0.051138    0.081241    0.020013
O      -1.315025   -0.595089    0.059644
C       0.755901   -0.527992   -1.144019
O       1.945248    0.169756   -1.443971
C       3.075531   -0.189581   -0.677635
C       3.044186    0.156839    0.791406
C       2.009238    0.152185    1.632115
C       0.571973   -0.230421    1.388924
H       0.705493    2.111333   -0.176315
H      -0.727633    1.783694   -1.152272
H      -0.891266    1.988808    0.605011
H      -1.836788   -0.286059   -0.688768
H       0.955672   -1.591082   -0.936826
H       0.138586   -0.477961   -2.050045
H       3.273883   -1.272378   -0.789108
H       3.916267    0.330612   -1.148625
H       4.022188    0.404275    1.201134
H       2.225424    0.409021    2.667430
H      -0.059359    0.238083    2.151684
H       0.462370   -1.312967    1.550012
