19

C      -0.024844    1.527154   -0.126822
C       1.312901    0.831063    0.011467
C       0.013836    0.019843   -0.037020
C       0.290555   -0.726935   -1.325944
C      -0.089244   -1.744405   -2.428147
C       1.329391   -1.223622   -2.832629
C       1.802921   -1.157897   -1.353427
C       2.071869    0.373762   -1.262341
C       0.994978    0.219818   -2.355512
H      -0.386109    2.061766    0.746714
H      -0.296286    1.996415   -1.066004
H       1.862600    0.942711    0.939628
H      -0.367958   -0.489629    0.839768
H      -0.164227   -2.795894   -2.131914
H      -0.918250   -1.471423   -3.089199
H       1.914125   -1.507280   -3.707776
H       2.229618   -1.967721   -0.757663
H       3.050670    0.820015   -1.449600
H       0.490414    0.987008   -2.944923
