17

C       0.016566    1.458143    0.072362
C       1.333387    0.720765   -0.025666
N       1.658159    0.183943    1.318598
C       0.459750   -0.729528    1.234629
C       0.769509   -2.198643    0.900888
N      -0.105682   -2.794062   -0.106352
C      -0.718832   -2.049230   -0.920005
O      -0.732691   -0.688384   -1.013005
C       0.009316   -0.027054   -0.038397
H      -0.261929    1.960715    0.995534
H      -0.279176    1.959240   -0.844787
H       2.083366    0.929260   -0.778353
H       2.511071   -0.368779    1.291810
H      -0.203635   -0.651460    2.102404
H       1.801728   -2.284613    0.532910
H       0.713613   -2.817277    1.802158
H      -1.360842   -2.469575   -1.690641
