15

C      -0.026796   -1.192373    0.153025
C      -0.025809    0.007657    0.092891
C      -0.002811    1.461924    0.004722
C       1.406963    2.031266   -0.171031
C       1.560073    3.567032   -0.110549
C       2.530483    3.275058    1.050994
O       2.226581    1.864928    1.006074
H      -0.030309   -2.252104    0.216364
H      -0.614083    1.793738   -0.846051
H      -0.446636    1.901732    0.906594
H       1.882032    1.566998   -1.045517
H       1.984975    4.045587   -0.993657
H       0.648196    4.093403    0.181001
H       3.587446    3.471161    0.830378
H       2.284000    3.717333    2.022945
