20

C      -0.000451    1.583096   -0.020597
C       0.091225    0.048594    0.006126
C       0.660426   -0.492451   -1.323734
C       0.586800   -1.990826   -1.446467
C       1.340876   -2.787150   -0.694155
C       2.326059   -2.207616    0.291456
N       1.714305   -1.391052    1.341019
C       0.788209   -0.382562    1.312391
O       0.483508    0.170658    2.357740
H       0.985323    2.030434   -0.192135
H      -0.663747    1.911954   -0.826418
H      -0.380270    1.952305    0.931941
H      -0.928937   -0.344954    0.115264
H       0.106731   -0.020144   -2.140951
H       1.701190   -0.153818   -1.428062
H      -0.131000   -2.413553   -2.144234
H       1.268089   -3.867717   -0.766317
H       2.858920   -3.011418    0.804626
H       3.091406   -1.628961   -0.249264
H       2.060529   -1.530918    2.279448
