15

N      -0.263861    1.317216    0.009480
C      -0.024212   -0.048610    0.018957
N      -1.006754   -0.943031   -0.097108
N      -0.376068   -2.119359    0.048479
C      -1.085112   -3.367341   -0.066496
C      -1.568669   -3.636874   -1.491562
O      -2.404200   -4.458353   -1.749881
N       0.934006   -2.049403    0.224593
C       1.189095   -0.741129    0.219568
H       0.475861    1.862768   -0.408994
H      -1.163268    1.552068   -0.388076
H      -0.390829   -4.160087    0.225426
H      -1.943646   -3.384560    0.610255
H      -1.070841   -3.020554   -2.271538
H       2.189060   -0.363852    0.360610
