14

N      -0.165923    1.388373   -0.207785
C      -0.032229    0.167469    0.066891
O       1.190099   -0.344945    0.454714
C       1.428475   -1.603042    0.909508
C       0.604122   -2.467265    1.523434
N      -0.732425   -2.323265    1.871988
C      -1.523456   -1.555125    1.229588
C      -1.205732   -0.770134    0.001409
N      -1.901543   -0.801423   -1.063399
H       0.715248    1.889124   -0.076391
H       2.478438   -1.844716    0.791326
H       1.057904   -3.391792    1.864970
H      -2.558974   -1.489950    1.571828
H      -2.701678   -1.432211   -0.946240
