17

C       0.007143    1.529203   -0.000791
C       1.458356    2.054114    0.041740
N       2.218159    1.624405    1.232179
C       1.880932    0.329845    1.582498
C       0.937610   -0.485361    1.049667
C      -0.045668   -0.015676    0.027844
N       1.055274   -1.742909    1.639224
C       2.025943   -1.610669    2.479353
O       2.600770   -0.369811    2.505183
H      -0.539489    1.927640    0.862664
H      -0.486814    1.913311   -0.898972
H       1.998431    1.694940   -0.843279
H       1.476244    3.146368    0.009733
H       2.162828    2.282585    2.001553
H      -1.057738   -0.357491    0.270322
H       0.187705   -0.425592   -0.964153
H       2.429076   -2.336313    3.167142
