21

C      -0.424093    1.450248   -0.094267
C      -0.062155   -0.031326   -0.011487
C       1.141302   -0.449641   -0.904542
C       2.062151   -0.474988    0.363663
O       2.826224   -1.652627    0.574236
C       2.902170    0.711650    0.491321
C       3.634772    1.663096    0.571550
C       0.767327   -0.477442    1.238407
C       0.718991    0.299627    2.542997
H       0.454970    2.091854    0.020636
H      -0.874629    1.677318   -1.066703
H      -1.146936    1.728909    0.679960
H      -0.964704   -0.628691   -0.168281
H       1.047223   -1.464941   -1.296520
H       1.427091    0.231261   -1.709563
H       3.677012   -1.540145    0.136250
H       4.274440    2.507407    0.650396
H       0.564094   -1.535839    1.431573
H       0.953259    1.357460    2.396970
H      -0.274844    0.231122    2.998682
H       1.442009   -0.105766    3.258497
