17

C       0.098203    1.512415    0.201987
O       1.514446    1.436765   -0.146442
C       1.298192    0.215832   -0.901810
C       1.515895   -1.206582   -0.345929
N       0.771023   -0.764809    0.872632
C      -0.036992    0.036286   -0.159003
C      -0.799927   -1.041752   -0.924692
N      -0.255921   -1.258972   -2.288757
C       0.364778   -1.956017   -1.135223
H      -0.053778    1.775959    1.251489
H      -0.435213    2.206287   -0.459992
H       1.388201    0.380218   -1.971018
H       2.462904   -1.736056   -0.223318
H       0.211465   -1.525571    1.262446
H      -1.794062   -1.387789   -0.665739
H      -0.853545   -1.920217   -2.783263
H       0.288990   -3.035372   -1.056611
