23

C      -0.171267    1.538941   -0.003162
C       0.002767    0.024306    0.039715
O      -1.254208   -0.629149   -0.001043
C       1.101219   -0.499110   -0.938340
C       2.088524   -0.554356    0.257298
C       0.868725   -0.509349    1.221590
C       0.953854    0.243808    2.518991
C      -0.104290    0.046963    3.579345
C       1.288848   -0.484806    3.799308
H       0.788877    2.060915    0.056801
H      -0.643702    1.838854   -0.947577
H      -0.802668    1.878883    0.822794
H      -1.780991   -0.230068   -0.702165
H       0.836422   -1.497145   -1.296368
H       1.364290    0.132286   -1.791808
H       2.750410   -1.419617    0.328134
H       2.697714    0.351927    0.331282
H       0.523796   -1.531514    1.414922
H       1.358037    1.249838    2.435878
H      -0.423042    0.907661    4.157085
H      -0.895442   -0.664362    3.368255
H       1.438364   -1.558303    3.744792
H       1.921278    0.013900    4.525536
