19

C      -0.231081    1.446412   -0.016153
N       0.006360    0.007423    0.007098
C       1.164508   -0.486228   -0.835322
C       2.147115   -0.129187    0.309532
C       0.883914   -0.510507    1.136530
C       0.757182   -2.033662    0.880448
C       0.978881   -2.004966   -0.668197
C       0.654579   -0.021485    2.477812
N       0.477159    0.379643    3.547692
H       0.662677    2.085536    0.065480
H      -0.735718    1.692196   -0.955612
H      -0.905421    1.706584    0.804867
H       1.261318   -0.077769   -1.840604
H       3.050138   -0.730183    0.445679
H       2.387518    0.930814    0.369096
H       1.514834   -2.603419    1.422350
H      -0.232552   -2.393995    1.161750
H       0.106958   -2.364142   -1.216573
H       1.857626   -2.572656   -0.983682
