19

C      -0.157894    1.550754   -0.159873
C      -0.022089    0.027023    0.008826
C      -1.391315   -0.654630    0.125548
C       0.789192   -0.539250   -1.120658
O       0.218552   -0.673468   -2.424496
C       0.833247   -1.820213   -1.831328
C       2.397842   -1.679762   -2.009332
O       2.662092   -0.465869   -2.708297
C       2.364630   -0.394293   -1.315498
H       0.820885    2.035674   -0.231426
H      -0.715541    1.786282   -1.071815
H      -0.690548    1.987861    0.690081
H       0.544939   -0.165911    0.931130
H      -1.962278   -0.527482   -0.798436
H      -1.287408   -1.727433    0.315314
H      -1.966259   -0.220226    0.948700
H       0.250942   -2.728265   -1.734796
H       3.139902   -2.467768   -2.032755
H       3.077313    0.085117   -0.655082
