19

C       0.004254    1.713407    0.097388
C       0.016831    0.197494    0.066605
C       1.207514   -0.673166   -0.273198
C       2.617555   -0.146936   -0.410838
O       3.011231    0.838373    0.557604
C       2.583038    0.812509    1.844259
O       3.052715    1.593727    2.625945
C       1.521100   -0.204277    2.231015
C       0.628546   -0.711589    1.116273
H       0.934370    2.154115    0.455404
H      -0.172570    2.107610   -0.909494
H      -0.808749    2.075018    0.736252
H      -0.911892   -0.206954   -0.330533
H       1.027499   -1.519094   -0.931337
H       3.324376   -0.985871   -0.350319
H       2.772888    0.342218   -1.377556
H       2.062592   -1.057215    2.663179
H       0.956847    0.242490    3.054486
H       0.037873   -1.578641    1.397132
