25

C      -0.306837    1.483655    0.303155
C      -0.060855    0.020351   -0.034199
O      -1.303709   -0.651075    0.037673
C      -1.312328   -2.086631   -0.075486
C      -0.608550   -2.556287   -1.350189
C      -0.759569   -2.726205    1.218714
C      -1.891656   -2.524710    2.233183
C      -3.158673   -2.856475    1.418504
C      -2.820941   -2.455752   -0.043399
H       0.624750    2.054052    0.236281
H      -1.031264    1.918178   -0.391693
H      -0.705387    1.583619    1.316822
H       0.373434   -0.063009   -1.041947
H       0.670318   -0.408697    0.667997
H       0.467162   -2.357127   -1.325264
H      -0.739961   -3.635066   -1.475924
H      -1.028962   -2.055598   -2.228492
H      -0.593503   -3.797025    1.043694
H       0.198059   -2.300392    1.530820
H      -1.785459   -3.141917    3.129683
H      -1.909908   -1.476964    2.549015
H      -3.365188   -3.930889    1.476236
H      -4.046736   -2.344586    1.798317
H      -3.390167   -1.586929   -0.380367
H      -3.031458   -3.274150   -0.737557
