12

O      -0.110554   -0.054013    0.000358
C      -0.062851    1.142822    0.007983
N       1.139702    1.874513    0.000090
C       2.383896    1.242177   -0.018753
N       3.491355    1.869510   -0.026370
C       3.474370    3.296877   -0.015473
O       4.498437    3.921673   -0.020757
N       2.213428    3.967574    0.004224
C       1.154392    3.262918    0.010708
H      -0.944187    1.807596    0.024071
H       2.330107    0.156903   -0.026457
H       0.169879    3.731612    0.025497
