25

C      -0.147836    1.921604   -0.586145
C      -0.345184    0.414680   -0.381320
C       0.638886   -0.432098   -1.184673
C       2.145903   -0.536157   -0.756806
C       2.489494   -0.271699    0.708700
C       2.088919   -2.046639   -1.155630
O       2.754427   -3.006461   -0.369382
C       0.528037   -1.994830   -1.168884
C      -0.158374   -2.640817    0.034600
H       0.855454    2.240744   -0.284964
H      -0.275583    2.195085   -1.639508
H      -0.869592    2.500987   -0.001706
H      -0.271682    0.178658    0.686556
H      -1.367252    0.144406   -0.678345
H       0.598850   -0.094151   -2.227227
H       2.826759    0.055242   -1.377313
H       1.831980   -0.796674    1.409721
H       3.515400   -0.592357    0.917242
H       2.420247    0.794377    0.945891
H       2.478098   -2.193310   -2.167003
H       2.438853   -2.929018    0.536398
H       0.082727   -2.415010   -2.076861
H       0.200476   -2.258270    0.995998
H      -1.238625   -2.467106    0.007732
H       0.004931   -3.723401    0.027382
