13

O       0.076096    1.353844    0.185411
C      -0.003358    0.005457    0.067796
C      -1.157266   -0.678464    0.056359
C      -1.145627   -2.138238   -0.005002
N      -2.238527   -2.804995   -0.022936
N       0.126213   -2.774929   -0.055385
C       1.180875   -2.055500   -0.040284
N       1.206667   -0.676183   -0.016269
H       0.742076    1.698700   -0.422074
H      -2.103121   -0.156181    0.077387
H      -2.009597   -3.799354   -0.079037
H       2.164190   -2.522876   -0.058482
H       2.055936   -0.202095    0.250222
