15

O       0.119234    1.379268    0.141776
C       0.019504   -0.026116    0.027746
C      -1.448933   -0.454576   -0.110415
C      -1.494882   -1.402576   -1.314525
O      -2.425696   -2.083157   -1.668842
C      -0.157194   -1.326081   -1.972985
C       0.667508   -0.556288   -1.247374
C       2.055024   -0.208310   -1.589557
O       2.717150    0.566734   -0.930238
H       1.063301    1.587010    0.133921
H       0.490761   -0.518764    0.892950
H      -1.871336   -0.929865    0.776827
H      -2.052404    0.431231   -0.335041
H       0.067881   -1.834309   -2.903885
H       2.470824   -0.689726   -2.498054
