18

O       0.019216    1.303230   -0.244925
C      -0.043366   -0.053373   -0.009675
C      -0.433492   -0.623680    1.306541
C      -1.400604   -0.778641    0.123547
C      -2.601302    0.082000    0.111735
O      -2.594831    1.240174    0.513819
N      -3.725878   -0.473535   -0.485327
C      -4.485080   -1.592595    0.045726
C      -5.065673   -0.209391   -0.022160
H      -0.805390    1.687759    0.103803
H       0.703705   -0.584587   -0.591061
H       0.049447   -1.525899    1.665568
H      -0.743693    0.078134    2.073580
H      -1.504647   -1.756830   -0.329896
H      -4.787121   -2.348265   -0.673951
H      -4.206585   -1.972919    1.025534
H      -5.163395    0.351242    0.903221
H      -5.795260    0.029299   -0.790247
