23

C      -0.202033    1.592585    0.111439
C      -0.001746    0.078815   -0.022162
C       0.799793   -0.532461    1.130292
C       0.909271   -2.075036    1.129829
C       1.969039   -2.308842    2.245154
C       2.913061   -1.626991    1.214708
C       2.065749   -2.353000    0.126503
C       2.347659   -0.194890    1.165783
O       2.844463    0.587617    0.093066
H       0.760402    2.109760    0.101030
H      -0.810854    1.984362   -0.709761
H      -0.712974    1.839395    1.049277
H      -0.979948   -0.418558   -0.058873
H       0.477834   -0.138160   -0.984401
H       0.335881   -0.204900    2.069242
H      -0.025632   -2.636667    1.095321
H       1.815960   -1.814708    3.210040
H       2.207315   -3.364296    2.396429
H       3.998672   -1.716854    1.264284
H       2.312003   -3.414523    0.052679
H       2.003817   -1.929975   -0.882236
H       2.611803    0.372166    2.062443
H       2.794045    0.064381   -0.713278
