19

C       0.162692    1.599952   -0.217067
C       0.004942    0.109670   -0.029085
O      -1.131701   -0.441394   -0.647687
C       1.219161   -0.787979    0.045838
O       2.479503   -0.185407    0.030683
C       0.333193   -0.596004    1.265624
C       0.883820    0.126376    2.489673
C       1.983381   -0.613463    3.109912
C       2.899177   -1.239562    3.575693
H       1.124543    1.952720    0.157900
H       0.128406    1.840594   -1.286643
H      -0.647313    2.146993    0.275629
H      -1.023226   -0.340669   -1.600641
H       1.148218   -1.743581   -0.473515
H       2.987318   -0.554934    0.764260
H      -0.321062   -1.432019    1.490560
H       1.240866    1.125367    2.222312
H       0.081481    0.275949    3.221848
H       3.696434   -1.786265    4.015552
