15

C       0.000767    1.501241    0.114811
C      -0.036958    0.010437    0.033883
C      -0.055389   -0.821172   -1.038101
O      -0.086672   -2.111294   -0.661625
N      -0.096192   -2.173712    0.729372
C      -0.060422   -0.921851    1.114723
O      -0.059426   -0.528083    2.407621
C       0.120680   -1.473486    3.386354
N       0.007925   -1.105401    4.582390
H       0.883475    1.846045    0.662983
H       0.024475    1.946308   -0.882751
H      -0.875863    1.892079    0.641423
H      -0.048620   -0.645157   -2.103027
H       0.358574   -2.462250    2.991236
H       0.184843   -1.891870    5.204786
