15

N      -0.096313    1.248350    0.006542
C      -0.050976   -0.008184    0.002537
O       1.090799   -0.778944   -0.004309
C       0.760751   -2.139944   -0.003526
O       1.582520   -3.006872    0.007343
N      -0.598357   -2.218903   -0.020869
C      -1.222548   -0.931237    0.004467
C      -2.474734   -0.606078    0.778559
C      -2.492253   -0.586907   -0.730062
H       0.837171    1.658289    0.004578
H      -1.066408   -3.106513    0.029676
H      -2.970688   -1.426918    1.285786
H      -2.482010    0.341542    1.304857
H      -2.511752    0.374041   -1.231254
H      -2.999535   -1.395173   -1.245962
