16

N      -0.034016    1.202098    0.345547
C      -0.022012   -0.016306    0.019133
O       1.110311   -0.712238   -0.342174
C       0.765728   -1.952132   -1.006563
C       1.676283   -3.009632   -0.585004
C       2.412322   -3.900780   -0.259074
C      -0.706223   -2.200236   -0.677678
C      -1.057017   -2.198555    0.775652
C      -1.196239   -0.923144   -0.036806
H       0.901413    1.603931    0.265132
H       0.876157   -1.789859   -2.087311
H       3.067150   -4.684827    0.032403
H      -1.295824   -2.759158   -1.392472
H      -1.980572   -2.686298    1.064168
H      -0.257781   -2.263163    1.506250
H      -2.170496   -0.490007   -0.213269
