20

C       0.038062    1.559385    0.026635
C       0.037696    0.028709    0.011237
C       0.728389   -0.529169   -1.246715
C       0.994056   -2.009070   -1.155960
C       0.898363   -2.705954   -0.024170
C       0.557039   -2.090848    1.310406
O       1.334502   -2.668596    2.359341
C       0.691623   -0.563557    1.268385
H       1.060774    1.951173    0.081367
H      -0.425130    1.966180   -0.878996
H      -0.513646    1.947971    0.888892
H      -1.007769   -0.312339   -0.010550
H       0.119870   -0.314982   -2.135299
H       1.678978    0.002068   -1.414195
H       1.271588   -2.515522   -2.078206
H       1.081750   -3.777843   -0.010508
H      -0.475653   -2.354146    1.578665
H       2.261514   -2.528860    2.135086
H       1.761961   -0.308329    1.272383
H       0.260908   -0.132258    2.178344
