23

C      -0.026438    1.502156   -0.363429
C       0.037760    0.050638    0.117989
O       0.696687   -0.042439    1.382208
C      -1.335347   -0.590066    0.155249
C      -1.888397   -1.332796   -1.039439
C      -1.532616   -2.085439    0.222801
C      -0.378833   -3.066061    0.258843
C      -0.807505   -4.467477   -0.162572
O       0.332155   -5.311669   -0.096803
H       0.973149    1.944922   -0.368835
H      -0.446960    1.565160   -1.372071
H      -0.661964    2.101426    0.300870
H       0.683830   -0.515503   -0.561557
H       0.145108    0.409129    2.030581
H      -2.060788   -0.001977    0.717361
H      -2.931064   -1.197467   -1.305322
H      -1.227601   -1.457840   -1.892912
H      -2.382547   -2.396195    0.827535
H       0.430083   -2.743783   -0.404638
H       0.049342   -3.113453    1.266422
H      -1.608877   -4.827007    0.504591
H      -1.225352   -4.435872   -1.181913
H       0.066959   -6.196025   -0.364998
