15

N      -0.470702    1.063134   -0.203872
C      -0.565090   -0.186235   -0.351174
O      -0.693474   -0.977587    0.737134
C      -0.882396   -2.372612    0.495928
C      -2.310166   -2.708134    0.200576
N      -3.073005   -3.377125    1.051658
N      -4.252188   -3.433501    0.392096
C      -4.154690   -2.808221   -0.798407
N      -2.934559   -2.339119   -0.958252
H      -0.357338    1.507974   -1.112463
H      -0.548933   -0.739766   -1.297765
H      -0.241640   -2.703179   -0.330885
H      -0.572625   -2.882161    1.408935
H      -5.041421   -3.896644    0.812594
H      -4.975235   -2.726867   -1.495288
