19

C      -0.065005    1.405425    0.013065
C       1.307102    0.794465    0.057679
C       0.038639   -0.087741    0.084515
C       0.366333   -0.643129   -1.301190
O      -0.532189   -0.227175   -2.314662
C       0.147757    0.093119   -3.520396
C       1.130801    1.231319   -3.293104
O       2.153428    0.869997   -2.374248
C       1.730348    0.126853   -1.249698
H      -0.366061    1.889455    0.936744
H      -0.457516    1.872358   -0.882087
H       1.987824    1.006184    0.873746
H      -0.363386   -0.667040    0.905021
H       0.490100   -1.733217   -1.337440
H       0.679630   -0.786460   -3.918690
H      -0.620249    0.388473   -4.241539
H       1.639888    1.488045   -4.228285
H       0.583721    2.121653   -2.948248
H       2.538908   -0.580482   -1.041103
