14

C       0.011239    1.534249   -0.040204
C      -0.032201    0.024991    0.086988
O      -0.080104   -0.547065    1.154300
C      -0.012199   -0.706255   -1.168493
C       0.004889   -1.311421   -2.211505
C       0.024295   -2.045233   -3.476218
C       0.037894   -3.499866   -3.319200
C       0.049480   -4.694145   -3.204036
H       0.918113    1.840474   -0.572880
H      -0.840913    1.886807   -0.631336
H      -0.009721    1.985351    0.952822
H      -0.848116   -1.746133   -4.074048
H       0.900116   -1.728015   -4.059421
H       0.059285   -5.750339   -3.093175
