22

C      -0.149656    1.386280   -0.000151
C      -0.377323   -0.073224   -0.368120
O       0.088575   -0.578516   -1.371779
N      -1.139762   -0.781586    0.524747
C      -1.286968   -2.202818    0.420263
C      -2.551281   -2.838752    0.943020
C      -2.278873   -2.813738   -0.546631
C      -3.117866   -1.899185   -1.415217
C      -1.853666   -4.104330   -1.218188
H      -0.084778    1.971993   -0.918058
H      -0.936475    1.795065    0.640107
H       0.806208    1.481645    0.526028
H      -1.389804   -0.342426    1.396554
H      -0.360200   -2.757899    0.552677
H      -2.463267   -3.774462    1.485110
H      -3.322019   -2.174211    1.321700
H      -3.390363   -0.980951   -0.889265
H      -2.566525   -1.616459   -2.317731
H      -4.042908   -2.400925   -1.721335
H      -2.724845   -4.697790   -1.519208
H      -1.260973   -3.892784   -2.114828
H      -1.244412   -4.723235   -0.551774
