18

O       0.688704    0.598259   -0.921083
C      -0.000693   -0.253255   -0.049480
C       0.167179   -0.087401    1.491122
C      -1.332382   -0.377790    1.614623
C      -1.945237   -1.476254    2.415546
C      -2.262406   -0.022861    2.758914
C      -1.715346    0.566902    3.946751
N      -1.255068    1.053072    4.891002
C      -1.544105   -0.103748    0.121522
H       0.522512    1.508007   -0.651123
H       0.257027   -1.268380   -0.362479
H       0.865276   -0.751601    2.004887
H       0.405469    0.948475    1.759099
H      -2.755712   -2.053881    1.983511
H      -1.314214   -2.020645    3.109593
H      -3.251550    0.337989    2.494863
H      -1.862771    0.927915   -0.066863
H      -2.189359   -0.783137   -0.440751
