14

C      -0.026194    1.444670   -0.024339
N      -0.050167   -0.007987   -0.052108
C       0.516680   -0.618503   -0.990625
N       0.582443   -2.000673   -1.152907
C       1.302144   -2.310795   -2.277588
C       1.682751   -1.144337   -2.838535
O       1.205703   -0.085744   -2.070200
C       2.428678   -0.874684   -3.997398
N       3.045882   -0.661595   -4.955778
H       0.834370    1.880863   -0.546277
H      -0.937838    1.851666   -0.480573
H      -0.008690    1.779091    1.016881
H       0.173547   -2.637762   -0.492507
H       1.489866   -3.320762   -2.599183
