14

C      -0.074968    1.476631    0.073228
C       0.063060   -0.005588    0.069846
C       1.199861   -0.867003   -0.369409
C       0.622707   -1.002338    1.055178
O       1.349360   -0.797212    2.197516
C      -0.731789   -1.671862    0.936276
O      -1.343128   -2.550670    1.447550
O      -1.159316   -0.805338   -0.064825
H       0.878908    1.938592    0.342091
H      -0.367618    1.842876   -0.915972
H      -0.832294    1.789872    0.797199
H       1.047283   -1.639452   -1.116499
H       2.176095   -0.389114   -0.372221
H       1.961956   -1.532456    2.313631
