19

C       0.223134    1.555221   -0.364767
C       0.045950    0.088037   -0.037164
C       1.216302   -0.864642   -0.051318
C       0.532092   -0.534714    1.255683
C       1.257552    0.276020    2.332441
C       0.217969    0.916256    3.241599
O       0.057765    2.101486    3.362455
C       2.159041   -0.671198    3.113183
O       3.358513   -0.599184    3.134654
H       1.209581    1.925585   -0.072788
H       0.122106    1.716584   -1.443121
H      -0.525997    2.173527    0.140206
H      -0.893203   -0.327085   -0.394509
H       1.090802   -1.859952   -0.462896
H       2.201476   -0.438057   -0.212801
H      -0.105594   -1.313984    1.667487
H       1.879335    1.062547    1.902794
H      -0.425758    0.188569    3.788576
H       1.618944   -1.479883    3.657729
