19

C       0.835393   -0.011008   -0.778316
N      -0.139481    0.137181    0.294864
C      -0.144026    1.468378    0.889847
C      -1.386136   -0.443591    0.118175
N      -2.482766    0.231188    0.410856
O      -3.539226   -0.664086    0.230447
C      -3.037204   -1.834063   -0.181356
C      -1.685731   -1.797445   -0.283023
C      -0.771680   -2.928658   -0.636809
H       1.825810    0.255567   -0.397289
H       0.876421   -1.041938   -1.127922
H       0.614719    0.638621   -1.641347
H      -0.522286    2.239775    0.201772
H      -0.780093    1.470602    1.775835
H       0.880138    1.724933    1.176034
H      -3.755072   -2.623361   -0.350288
H      -1.316066   -3.876962   -0.622230
H      -0.333731   -2.822292   -1.636144
H       0.055186   -3.009225    0.076817
