21

C       0.086373    1.509003   -0.429573
C       0.048690    0.042715   -0.054931
C       1.298712   -0.760919    0.071863
N       0.480493   -0.472109    1.246049
C       1.026870    0.432692    2.250836
C       1.768143   -0.366173    3.323519
C       2.321927    0.512948    4.436259
O       3.004816   -0.326182    5.356070
H       1.022302    1.993194   -0.141282
H      -0.019303    1.615885   -1.514446
H      -0.739123    2.058914    0.036448
H      -0.838542   -0.472511   -0.422591
H       1.339263   -1.799960   -0.245363
H       2.239575   -0.219520   -0.035262
H       1.707118    1.191367    1.826684
H       0.187585    0.975823    2.704408
H       1.092100   -1.112227    3.753282
H       2.598253   -0.917079    2.865787
H       3.000640    1.272247    4.012543
H       1.498137    1.055826    4.929166
H       3.344613    0.223363    6.068087
