16

C       0.039002    1.374891    0.046430
O       0.016348   -0.051479   -0.022251
C       0.618018   -0.568223   -1.101081
N       1.209987    0.067061   -2.076920
C       1.662043   -0.933059   -2.933832
C       2.401156   -0.599070   -4.186940
C       1.324881   -2.161204   -2.443242
N       0.646525   -1.917326   -1.251623
H       1.067954    1.745351    0.072187
H      -0.467713    1.812630   -0.818569
H      -0.483695    1.635600    0.967381
H       3.317630   -0.039312   -3.968980
H       2.676716   -1.505891   -4.732435
H       1.793953    0.027609   -4.849749
H       1.492074   -3.161134   -2.806517
H       0.250675   -2.590005   -0.618441
