16

O      -0.180889   -0.109811   -0.339727
C      -0.082438    1.059874   -0.164511
C      -1.160878    2.219892    0.148731
C      -0.001623    2.807995    0.974487
N       0.998189    4.008826    1.157276
C       1.993976    2.822192    1.143558
C       1.569566    2.130202    2.438303
C       0.242303    2.128069    2.329688
C       1.030750    2.142058    0.077589
H      -1.405300    2.770275   -0.763126
H      -2.075214    1.907743    0.658222
H       1.086111    4.485758    0.253089
H       3.041094    3.055848    0.955622
H       2.222028    1.796042    3.230819
H      -0.526012    1.774358    3.001775
H       1.104680    2.687176   -0.873580
