21

C       0.157132    1.511791    0.059724
C       0.054795    0.061285    0.138951
C      -0.018718   -1.138478    0.212016
C      -0.139513   -2.589894    0.282257
C      -1.393595   -3.126543   -0.444134
C      -1.464610   -4.631786   -0.370350
O      -1.754681   -5.211999    0.909949
C      -2.691086   -5.419313   -0.154170
C      -4.075261   -4.846556    0.012353
H       1.123365    1.822116   -0.353644
H      -0.625588    1.932809   -0.581317
H       0.057384    1.974156    1.048155
H       0.756538   -3.058242   -0.147328
H      -0.179949   -2.916066    1.328780
H      -2.281948   -2.671611    0.000004
H      -1.363654   -2.819646   -1.496374
H      -0.648255   -5.138309   -0.893266
H      -2.678557   -6.440323   -0.543558
H      -4.052476   -3.829774    0.408323
H      -4.602490   -4.838206   -0.947924
H      -4.654960   -5.464897    0.705732
