20

C      -0.115161    1.593036   -0.040895
C      -0.122069    0.063753   -0.073886
C       0.880126   -0.502504   -1.101040
C       0.894916   -1.959995   -1.148461
C       0.889761   -3.163429   -1.158445
C       0.890389   -4.626822   -1.208516
C       1.292698   -5.165955   -2.603960
C       1.771270   -5.189585   -0.168841
N       2.460960   -5.651849    0.634259
H       0.874013    1.980429    0.227221
H      -0.382340    2.013614   -1.016800
H      -0.831465    1.973958    0.692874
H       0.122456   -0.337074    0.915849
H      -1.124832   -0.304555   -0.317524
H       0.643129   -0.107590   -2.098108
H       1.888856   -0.138220   -0.865046
H      -0.122588   -4.989047   -0.983919
H       1.256766   -6.257970   -2.613509
H       0.600188   -4.776705   -3.353224
H       2.303745   -4.842456   -2.858975
