21

C      -0.002123    1.566578    0.268042
C       0.000498    0.076365   -0.116870
C      -1.374407   -0.518686   -0.131297
C      -2.106787   -0.948368   -1.169577
C      -3.450731   -1.510629   -0.781476
C      -3.527593   -1.300472    0.746526
C      -3.893275   -2.534074    1.575383
C      -2.141600   -0.747240    1.121683
O      -1.746915   -0.547773    2.250467
H       1.018236    1.960966    0.288573
H      -0.580284    2.157336   -0.449733
H      -0.441399    1.703958    1.259236
H       0.473771   -0.059618   -1.095536
H       0.605968   -0.471371    0.615459
H      -1.779299   -0.921314   -2.205019
H      -4.265856   -1.015529   -1.322957
H      -3.515594   -2.574239   -1.047810
H      -4.245416   -0.501780    0.973463
H      -3.228307   -3.373194    1.342836
H      -3.790157   -2.309590    2.640332
H      -4.921439   -2.854083    1.381445
