20

C       0.316209    1.475708   -0.268278
C       0.038814    0.004741    0.027827
O      -1.299954   -0.189489    0.429387
C       0.609201   -0.965265   -1.056817
C       1.854392   -1.190276   -0.158198
C       1.029463   -0.646674    1.037797
N       1.670454    0.157667    2.045469
C       1.635547   -0.127730    3.378870
O       1.064143   -1.069088    3.882735
H       1.355586    1.645769   -0.569964
H      -0.315916    1.820975   -1.095478
H       0.099487    2.090832    0.610211
H      -1.877187    0.271353   -0.189132
H      -0.015115   -1.858945   -1.123911
H       0.773177   -0.560456   -2.058296
H       2.246223   -2.204524   -0.067382
H       2.679300   -0.521032   -0.422130
H       0.512911   -1.451396    1.562506
H       2.212992    0.956252    1.755607
H       2.206503    0.618285    3.967968
