21

C      -0.261643    1.457905   -0.044688
C       0.073640   -0.021951   -0.057949
O       1.257080   -0.318772   -0.840861
C       2.000405   -0.735670    0.319422
C       0.741450   -0.632992    1.219900
O       0.833704    0.180645    2.364965
C       0.158682   -1.962210    1.633495
C       0.489122   -2.578549    2.968204
C      -0.899759   -2.048831    2.703271
H       0.588079    2.066286    0.285076
H      -0.525802    1.788805   -1.053463
H      -1.109906    1.655232    0.618338
H      -0.786650   -0.597889   -0.422769
H       2.440422   -1.732474    0.200921
H       2.797049   -0.024553    0.584171
H       1.230011    1.021196    2.117475
H       0.057572   -2.647230    0.796554
H       0.636324   -3.651949    3.012030
H       1.114721   -2.002766    3.639430
H      -1.177614   -1.128410    3.202451
H      -1.709191   -2.757015    2.565066
