15

N       0.059235   -1.166442    0.053410
C       0.027360   -0.011363    0.036487
C      -0.015864    1.450009    0.011962
C      -0.535483    2.079947    1.298415
C       0.598163    2.299300    2.287842
C       0.088773    3.439248    1.447447
N       1.335292    3.458906    0.585613
C       1.849802    2.304528    1.398836
C       1.369750    2.082887    0.013391
H      -0.600742    1.773882   -0.856134
H      -1.537666    1.893508    1.660151
H       0.537398    2.109306    3.348913
H      -0.424740    4.361462    1.680782
H       2.881097    2.248238    1.723501
H       2.051625    1.937753   -0.815700
