14

C       0.673080    1.279390    0.036473
O       0.701710   -0.150533   -0.139323
C       0.176887   -0.597138   -1.278409
O      -0.338612    0.061729   -2.140251
C       0.270821   -2.125377   -1.365661
O      -0.625344   -2.855503   -1.026265
C       1.580936   -2.636447   -1.988288
N       1.604028   -3.978141   -2.119171
O       2.456891   -1.852150   -2.295082
H       1.233972    1.766686   -0.763828
H      -0.357167    1.641777    0.028165
H       1.139598    1.464293    1.002936
H       0.801135   -4.512598   -1.827935
H       2.407124   -4.434230   -2.518055
