23

C      -0.193649    1.438960    0.262949
C       0.051962   -0.028353    0.056382
C      -0.715327   -1.098466    0.791980
C       0.785204   -1.063506    0.935787
C       1.403667   -1.698064   -0.322121
C       0.663544   -0.645481   -1.208236
C       1.520115   -0.931721    2.221959
C       0.844287   -0.651132    3.542731
C       1.430808   -2.012898    3.280261
H       0.686639    2.033818   -0.008230
H      -1.030975    1.792565   -0.352086
H      -0.436106    1.659691    1.307465
H      -1.281897   -0.743788    1.647063
H      -1.197749   -1.911908    0.251393
H       2.490083   -1.582289   -0.362282
H       1.162767   -2.752740   -0.495727
H      -0.047215   -1.031165   -1.947655
H       1.358293    0.028413   -1.717294
H       2.506884   -0.485645    2.112276
H       1.355046    0.004742    4.239238
H      -0.235819   -0.563834    3.568315
H       0.738822   -2.827959    3.097850
H       2.335411   -2.300251    3.804644
