13

O      -0.355870    0.344244    0.857531
C       0.016087    1.092277   -0.013897
C       1.218729    1.889817    0.070927
C       2.216928    2.572012    0.120759
C       3.413299    3.396850    0.195676
O       3.355306    4.558623    0.512919
C       4.706880    2.653308   -0.155874
C       5.896795    3.483017   -0.110318
C       6.885061    4.162858   -0.075019
H      -0.545924    1.223990   -0.959420
H       4.789688    1.800620    0.532818
H       4.571297    2.205556   -1.150294
H       7.757299    4.767904   -0.041696
