17

O       0.010885    1.468571   -0.072852
C       0.064510    0.063647   -0.013108
C       0.021386   -0.615102    1.372093
C      -1.509600   -0.314724    1.546047
C      -1.838100   -1.784479    1.860799
C      -0.735024   -1.870250    0.777250
C      -0.140342   -3.030995    0.186213
C       0.350913   -4.016155   -0.300785
C      -1.309974   -0.607590    0.016818
H       0.904414    1.810478    0.029232
H       0.787777   -0.352334   -0.728012
H       0.773192   -0.654121    2.162276
H      -1.937285    0.590858    1.968640
H      -1.567213   -2.154603    2.854372
H      -2.828691   -2.146879    1.569174
H       0.783172   -4.885221   -0.731193
H      -2.084364   -0.632503   -0.750444
