19

C      -0.177041    1.552150   -0.049439
C       0.165308    0.077592   -0.100916
O       1.487786   -0.175343   -0.641155
C       1.906261   -0.877794    0.543540
C       0.536794   -0.639521    1.219416
O       0.523168    0.214058    2.335568
C       0.916319   -0.405938    3.535249
C       0.774983    0.606742    4.659543
O       1.077357    0.378811    5.799700
H       0.534989    2.099025    0.571422
H      -0.153075    1.964156   -1.062772
H      -1.181656    1.699904    0.359482
H      -0.590488   -0.470647   -0.679655
H       2.165065   -1.923544    0.336501
H       2.750377   -0.385200    1.042963
H      -0.039179   -1.550303    1.432196
H       0.286486   -1.281623    3.768016
H       1.959878   -0.758029    3.504941
H       0.358962    1.583764    4.329255
