18

C      -0.009524    1.434851   -0.106248
N       0.098837    0.001895    0.022936
C       0.673271   -0.645572    1.068736
C       1.240818    0.019535    2.170094
C       1.785102   -0.789193    3.150774
N       1.793606   -2.124590    3.097015
C       1.227153   -2.659262    2.004655
C       1.222215   -4.161814    1.917517
N       0.671732   -1.990210    0.995677
H       0.974495    1.921715   -0.123526
H      -0.515477    1.666004   -1.045137
H      -0.593700    1.878351    0.710867
H      -0.267779   -0.597919   -0.697372
H       1.255556    1.097937    2.254073
H       2.241575   -0.341472    4.031892
H       0.694490   -4.586350    2.777415
H       0.743063   -4.491745    0.995462
H       2.247222   -4.543883    1.955683
