17

O       0.016556    1.446599    0.147801
C       0.003541    0.042911    0.006648
C       0.738322   -0.692039    1.170408
O       0.004449   -1.870584    1.501671
C      -1.321875   -1.728283    1.072026
C      -2.337907   -0.932818    1.932531
O      -1.834001    0.400898    2.115973
C      -2.471240    0.082436    0.868899
C      -1.403051   -0.603074   -0.003712
H      -0.388454    1.637168    1.003147
H       0.507677   -0.156703   -0.942641
H       1.752292   -1.003755    0.901264
H       0.799895   -0.013188    2.029900
H      -1.716500   -2.706084    0.782266
H      -3.045746   -1.285878    2.673478
H      -3.318791    0.688911    0.575762
H      -1.748701   -0.913912   -0.989170
