23

C      -0.112440    1.529213    0.059235
C      -0.086755    0.014603    0.116472
C      -1.253806   -0.651024   -0.584366
O       1.195128   -0.585933   -0.146941
C       0.656395   -0.688761    1.182737
C       1.424958    0.027343    2.299529
C       1.954679   -1.112238    3.185783
C       0.814089   -2.143602    3.147966
C       0.325838   -2.104926    1.684867
H       0.756878    1.967595    0.551154
H      -0.119593    1.866029   -0.983352
H      -1.016988    1.919341    0.539320
H      -1.314753   -0.306064   -1.622609
H      -1.146123   -1.736672   -0.595824
H      -2.200843   -0.397256   -0.094723
H       2.209929    0.667613    1.892590
H       0.740298    0.661340    2.877896
H       2.859348   -1.540964    2.738015
H       2.210743   -0.787757    4.198012
H       1.123696   -3.143585    3.463308
H       0.009189   -1.826529    3.822337
H      -0.734324   -2.354206    1.591494
H       0.881841   -2.818942    1.067980
