19

C       0.012917    1.390660   -0.011736
O       0.031255   -0.018319   -0.003705
C       0.681268   -0.554236    1.123330
C       0.658268   -2.087355    0.995776
C       1.413400   -2.571453   -0.259447
C       1.184056   -2.706251    2.206300
C       1.633843   -3.226043    3.200494
C       2.169396   -3.813256    4.400503
O       2.314210   -5.001037    4.580354
H       1.030590    1.810922   -0.023227
H      -0.510335    1.704323   -0.917819
H      -0.516658    1.795846    0.864472
H       1.724472   -0.200352    1.183434
H       0.174254   -0.246605    2.051887
H      -0.395817   -2.381812    0.897713
H       1.324787   -3.654369   -0.371353
H       0.996120   -2.082433   -1.141359
H       2.476094   -2.320418   -0.188852
H       2.451183   -3.074383    5.178721
