18

O      -0.058222    1.432604    0.056630
C      -0.014937    0.018792   -0.073130
C      -1.433986   -0.480682   -0.039540
C      -2.493405   -0.368860    1.077523
N      -3.262299   -1.148909   -0.006762
C      -2.612432   -0.143752   -0.981142
C      -1.933603   -1.951963   -0.152608
C      -1.738892   -2.714730   -1.367127
C      -1.544368   -3.370997   -2.356248
H       0.841814    1.767357    0.006778
H       0.454287   -0.289934   -1.020919
H       0.558371   -0.446336    0.745870
H      -2.338706   -0.936482    1.999988
H      -2.915562    0.617233    1.277186
H      -3.040646    0.857879   -0.913483
H      -2.570296   -0.499153   -2.011876
H      -1.754482   -2.581461    0.725362
H      -1.385257   -3.949790   -3.232434
