19

C      -0.607999    1.265186    0.092464
C      -0.059447   -0.144154    0.088776
C       1.363323   -0.391963   -0.346664
C       0.978317   -0.604447    1.096444
N       1.455806    0.276344    2.121012
C       0.589561    0.500075    3.270110
C       2.768697    0.658296    2.192472
O       3.268061    1.289487    3.100602
H       0.129715    1.974557    0.478292
H      -0.875661    1.579779   -0.921811
H      -1.507956    1.343740    0.711482
H      -0.778965   -0.909787   -0.188274
H       1.600628   -1.266197   -0.941971
H       1.955741    0.484086   -0.586197
H       0.885031   -1.641724    1.419440
H       0.324976   -0.451394    3.749026
H       1.132982    1.121275    3.981856
H      -0.333282    1.002604    2.967001
H       3.337410    0.332038    1.303783
