16

C      -0.112168    1.480726    0.230391
C      -0.031883   -0.000732    0.072450
C       0.012051   -0.710468   -1.061453
N       0.082926   -2.095984   -0.815374
C       0.086299   -2.372504    0.531088
O       0.154947   -3.457534    1.061365
C       0.017312   -0.985305    1.217403
C       1.173119   -0.854446    2.206031
O       1.900635    0.098368    2.293754
H       0.746899    1.854168    0.796485
H      -0.135763    1.978735   -0.743284
H      -1.013529    1.779114    0.781417
H      -0.006879   -0.355869   -2.082276
H       0.137280   -2.815847   -1.516507
H      -0.896023   -0.977774    1.832737
H       1.283922   -1.745466    2.859046
