24

C       0.041862    1.529083   -0.490560
C       0.001666    0.057714   -0.136214
C       1.237498   -0.775253   -0.127559
N       0.528378   -0.491378    1.119370
C       1.174736    0.378954    2.081179
C       0.264575    1.007225    3.166923
C       1.366331    0.694227    4.219600
C       0.951041    0.213793    5.601258
C       1.962411   -0.331477    3.212514
H       1.008084    1.988407   -0.269484
H      -0.145443    1.656016   -1.562245
H      -0.731735    2.087467    0.048114
H      -0.924200   -0.432506   -0.435929
H       1.225446   -1.809441   -0.462587
H       2.179433   -0.255090   -0.303905
H       1.806146    1.150799    1.614456
H      -0.052522    2.045428    3.037952
H      -0.618594    0.378793    3.320018
H       2.040328    1.553457    4.314942
H       0.276931   -0.647308    5.530127
H       1.820177   -0.091476    6.195199
H       0.429082    1.001091    6.157250
H       1.551143   -1.332158    3.377326
H       3.049450   -0.399920    3.121244
