19

C       0.330030    1.168960    0.133544
C      -0.035511   -0.295038    0.226548
O       0.776070   -1.134916    0.556864
C      -1.490529   -0.673424   -0.087168
C      -1.613636   -2.052434   -0.782465
C      -1.817779   -3.077619    0.362898
O      -0.623160   -3.717010    0.778390
C      -2.402948   -2.210881    1.462743
C      -2.219188   -0.912483    1.229092
H       1.355366    1.329168    0.468067
H       0.220725    1.510663   -0.902562
H      -0.360758    1.770462    0.735668
H      -1.950008    0.132456   -0.669264
H      -2.497219   -2.035814   -1.427379
H      -0.746891   -2.314092   -1.392613
H      -2.489039   -3.888517    0.062265
H       0.034159   -3.012402    0.895108
H      -2.844106   -2.632698    2.358592
H      -2.486411   -0.100309    1.896504
