13

C      -0.028535    1.512155    0.021752
C      -0.016852   -0.000058   -0.056135
C       0.764687   -0.705851   -1.097770
O       1.237836   -0.636573    0.241618
C      -1.172590   -0.667112    0.494182
C      -2.154746   -1.191681    0.963986
C      -3.261991   -1.793757    1.487877
N      -4.206444   -2.304558    1.931470
H       0.889195    1.909545   -0.417506
H      -0.889220    1.919433   -0.516534
H      -0.088667    1.839378    1.063356
H       0.447297   -1.690164   -1.435392
H       1.310579   -0.106150   -1.824827
