17

O       0.114504    1.336893    0.070029
C       0.059383   -0.075554   -0.065289
C      -1.353254   -0.561469   -0.019591
C      -2.437465   -0.122100    1.011608
N      -3.016404    0.784184   -0.010198
C      -2.497690   -0.177034   -1.012317
C      -3.002400   -1.609870   -0.690538
C      -2.959141   -1.570107    0.795270
N      -1.754713   -2.041813    0.027933
H      -0.757142    1.692208   -0.144831
H       0.532917   -0.403287   -1.004742
H       0.632361   -0.522766    0.757659
H      -2.262471    0.264604    2.013343
H      -4.031494    0.888381    0.016747
H      -2.385570    0.152459   -2.044029
H      -3.586729   -2.301571   -1.284411
H      -3.506787   -2.229342    1.457098
