19

C       0.066101    1.333255   -0.262799
O       0.043734    0.018401    0.258372
C      -1.206255   -0.604312    0.162030
C      -1.596897   -1.252611   -1.191113
O      -1.727910   -2.544979   -0.565483
C      -1.205918   -2.047853    0.685219
C       1.441036    1.903690   -0.053826
C       1.656420    3.351678    0.040301
O       1.698137    2.527305    1.204045
H      -0.171409    1.328744   -1.340284
H      -0.675897    1.969227    0.245392
H      -1.993354    0.033638    0.587502
H      -2.532733   -0.926152   -1.658898
H      -0.785097   -1.228030   -1.930963
H      -0.194344   -2.416827    0.895181
H      -1.865879   -2.275626    1.528989
H       2.254109    1.275868   -0.418968
H       2.608523    3.775235   -0.275269
H       0.805701    4.029820   -0.021942
