17

O      -1.045930    0.695709    0.718845
C      -0.466283    1.755067    0.722878
C       1.000775    1.896580    0.581783
C       1.520485    3.084055   -0.238099
C       1.739890    3.074029    1.223278
O       1.056171    4.037266    1.959170
C       1.066500    3.821679    3.366490
C       0.254675    2.688809    3.808142
C      -0.420626    1.760267    4.162386
H      -1.015468    2.716157    0.818045
H       1.536227    0.956176    0.510669
H       2.355183    2.912935   -0.906928
H       0.769210    3.775855   -0.605307
H       2.738253    2.848980    1.600122
H       2.102022    3.696771    3.719706
H       0.683017    4.749929    3.801484
H      -1.018836    0.935433    4.463466
