23

C      -0.111730    1.245265   -0.163049
O      -0.097097   -0.164178   -0.209174
C      -1.350596   -0.794009    0.079493
C      -1.282551   -2.150389   -0.623344
O      -1.099297   -1.977174   -2.016999
C      -1.637769   -0.842931    1.588784
C      -0.577195   -1.545827    2.439517
C      -0.693885   -1.185102    3.921355
O      -0.759676   -2.951165    2.248092
H       0.875339    1.588993   -0.483240
H      -0.871450    1.663837   -0.840294
H      -0.301478    1.632497    0.848284
H      -2.150882   -0.214165   -0.408348
H      -0.485930   -2.758398   -0.177748
H      -2.225590   -2.686948   -0.482517
H      -0.338635   -1.389531   -2.098229
H      -1.754621    0.183565    1.953887
H      -2.600655   -1.341939    1.753238
H       0.414059   -1.243496    2.069741
H      -1.687514   -1.442407    4.302482
H       0.048346   -1.732820    4.513407
H      -0.522974   -0.115757    4.083809
H      -0.043071   -3.408459    2.699185
