17

O       0.041411    1.354230   -0.339405
C      -0.045893    0.002091    0.058781
C      -1.482581   -0.484539    0.113408
O      -1.989819   -0.374877   -1.230708
C      -3.298953   -0.586623   -1.408153
C      -4.176299   -0.041539   -2.291264
C      -5.417115   -0.731733   -2.068660
C      -5.196361   -1.622315   -1.072304
O      -3.888932   -1.549417   -0.656676
H      -0.435428    1.423160   -1.174176
H       0.530401   -0.657250   -0.609306
H       0.393419   -0.068112    1.059156
H      -1.539113   -1.524247    0.453379
H      -2.082337    0.146770    0.779678
H      -3.965794    0.742993   -2.998431
H      -6.350477   -0.569500   -2.584725
H      -5.808479   -2.336290   -0.548971
