21

C      -0.916618    1.438930    1.465615
C      -0.697528    0.096208    0.800512
C      -1.390116   -0.321265   -0.461100
C      -2.364934    0.548695   -1.192294
C      -2.840675    0.128475   -2.565519
C      -3.777588    0.049022   -1.389375
N       0.057518   -0.082602   -0.444299
C       0.620927    1.062143   -1.143286
H      -0.015290    1.753388    2.003619
H      -1.180128    2.235345    0.767530
H      -1.726611    1.361729    2.198864
H      -0.486521   -0.692659    1.523970
H      -1.634497   -1.380711   -0.564886
H      -2.268721    1.617159   -1.039614
H      -3.007772    0.899455   -3.309462
H      -2.452611   -0.801553   -2.967706
H      -4.021498   -0.934475   -1.000947
H      -4.588594    0.765432   -1.322407
H       0.018111    1.981136   -1.130170
H       1.597518    1.295751   -0.706393
H       0.780929    0.787035   -2.190778
