20

C      -0.387972    1.838034   -0.283086
C      -0.008622    0.389991    0.073773
C       0.786011   -0.293221   -0.982803
C       2.039694   -0.812595   -1.072755
C       3.126325   -0.899100   -0.048526
C       3.496437   -2.348430    0.305468
N       2.223941   -1.325929   -2.360941
C       1.107154   -1.093943   -2.961923
O       0.176421   -0.471901   -2.206497
H       0.505966    2.450954   -0.432323
H      -0.975201    1.868603   -1.204899
H      -0.983758    2.288570    0.516195
H       0.574863    0.372360    0.999594
H      -0.922582   -0.185029    0.272387
H       4.016348   -0.386515   -0.434365
H       2.821559   -0.357825    0.853709
H       2.646024   -2.872491    0.753221
H       3.792539   -2.895054   -0.593711
H       4.327690   -2.375861    1.016601
H       0.829241   -1.330524   -3.977371
