21

C      -0.039909    1.531734   -0.142073
C       0.002395    0.020955    0.036810
N       0.900976   -0.669586   -0.900387
C       1.802781   -1.106390    0.027981
O       2.852833   -1.689180   -0.061745
C       0.910644   -0.567996    1.186111
N       1.517639    0.354235    2.118081
C       0.569146    0.780217    3.138651
C       2.729202   -0.186887    2.733566
H       0.949354    1.966520    0.015268
H      -0.381828    1.781088   -1.152576
H      -0.738692    1.993104    0.561922
H      -1.009070   -0.401432    0.030050
H       0.921439   -0.704565   -1.909470
H       0.404937   -1.414132    1.690040
H       0.238366   -0.054411    3.786526
H       1.033373    1.539461    3.775529
H      -0.318300    1.221763    2.678127
H       3.426808   -0.518166    1.964738
H       3.201611    0.596067    3.335026
H       2.519134   -1.045827    3.398259
