17

C      -0.304542    1.406314   -0.044552
N       0.103205    0.013773    0.008180
C       0.871080   -0.468260   -1.146037
C       1.265373   -1.889650   -0.735432
C       1.335626   -1.827155    0.787933
O       1.709078   -2.673209    1.545699
C       0.801387   -0.420575    1.205067
C       1.946756    0.436063    1.591360
N       2.833188    1.138633    1.832792
H       0.545716    2.108251   -0.043306
H      -0.888246    1.570485   -0.955116
H      -0.942492    1.638257    0.813729
H       0.244582   -0.434015   -2.041326
H       1.767878    0.146560   -1.338635
H       0.495417   -2.619450   -1.007390
H       2.215341   -2.237962   -1.146342
H       0.129109   -0.512715    2.064062
