19

C      -0.006887    1.484885   -0.023216
C      -0.046558   -0.022294    0.026375
O       0.263101   -0.652068   -1.268355
C      -0.580281   -1.771394   -0.885783
C       0.220493   -2.755975   -0.023723
C       0.988461   -1.982047    1.024177
C       0.850874   -0.659062    1.072127
C      -1.399237   -0.781308   -0.018635
O      -1.963582   -1.176404    1.202664
H       1.016559    1.838429   -0.186629
H      -0.637026    1.862218   -0.832879
H      -0.362750    1.900911    0.925379
H      -1.053689   -2.243590   -1.751620
H      -0.463887   -3.469094    0.455104
H       0.901178   -3.343728   -0.652782
H       1.628510   -2.525381    1.713090
H       1.348000   -0.035412    1.807722
H      -2.110530   -0.231151   -0.645923
H      -2.890641   -1.384621    1.056358
