21

O      -0.084889    1.413704    0.464706
C      -0.023009    0.051872    0.067703
C      -1.411095   -0.550853    0.246444
C      -1.457385   -2.031085   -0.121814
C      -0.879457   -2.995483    0.958801
C      -2.321335   -3.314728    1.428829
C      -2.856635   -2.728407    0.083473
C      -4.064671   -1.930870    0.093773
C      -5.062971   -1.259348    0.114761
H       0.790251    1.797564    0.358621
H       0.287340   -0.042788   -0.986400
H       0.712832   -0.503884    0.671602
H      -1.725945   -0.400730    1.286240
H      -2.119967    0.009358   -0.373104
H      -1.051321   -2.168597   -1.129459
H      -0.383679   -3.864564    0.517935
H      -0.207088   -2.553904    1.698436
H      -2.572676   -4.355846    1.641244
H      -2.628828   -2.700526    2.277584
H      -2.960006   -3.535122   -0.650412
H      -5.945217   -0.668957    0.131989
