27

C      -0.080596    1.584471    0.198397
C      -0.019636    0.053828    0.031643
C       0.703093   -0.553739    1.250638
C      -1.459755   -0.495743   -0.003357
C       0.724313   -0.379350   -1.263300
C       0.116257    0.085967   -2.606084
C       1.256644   -0.126253   -3.610476
C       2.496156    0.377511   -2.848822
C       2.229512    0.024592   -1.360118
H       0.915416    2.036479    0.235473
H      -0.636746    2.062812   -0.613528
H      -0.587976    1.840924    1.134885
H       0.170114   -0.314588    2.177582
H       0.759565   -1.645462    1.171637
H       1.724287   -0.172574    1.348395
H      -2.040473   -0.058427   -0.821349
H      -1.465042   -1.584076   -0.132403
H      -1.984126   -0.269582    0.931736
H       0.685987   -1.478106   -1.272281
H      -0.793747   -0.459198   -2.871463
H      -0.141946    1.151634   -2.567593
H       1.357345   -1.195896   -3.834364
H       1.099049    0.390203   -4.562078
H       3.429080   -0.052472   -3.224048
H       2.579894    1.463806   -2.966737
H       2.463113    0.876802   -0.715973
H       2.868965   -0.796489   -1.023718
