22

C       0.049617    1.489508   -0.127353
C       0.129206   -0.040559   -0.028823
C       0.960501   -0.621540   -1.180695
C       0.629515   -0.463775    1.362908
C       0.713798   -1.985729    1.626200
C       2.211172   -2.302192    1.501764
C       2.883495   -0.964201    1.717394
N       4.109105   -0.786463    1.965137
O       1.965547    0.038913    1.594609
H       1.043649    1.934323   -0.021770
H      -0.360224    1.797029   -1.094283
H      -0.589615    1.907597    0.657628
H      -0.892050   -0.441849   -0.103623
H       1.998794   -0.279259   -1.126832
H       0.960600   -1.715883   -1.182026
H       0.554611   -0.294976   -2.142983
H      -0.007738    0.022208    2.110150
H       0.359324   -2.205581    2.636740
H       0.093311   -2.554761    0.930569
H       2.574625   -3.036322    2.221528
H       2.472804   -2.667951    0.504138
H       4.313586    0.210650    2.052803
