21

C      -0.134636    1.572796   -0.069872
C       0.034843    0.052615   -0.007875
C       0.854960   -0.523452   -1.171042
C       1.471161   -1.619040   -0.748954
C       2.767716   -2.383954   -0.686910
O       2.714403   -2.278411    0.770350
C       1.301784   -1.864367    0.712299
C       0.801935   -0.507343    1.262137
C       1.957330    0.379890    1.733284
H       0.827299    2.088993   -0.142905
H      -0.730166    1.855447   -0.944363
H      -0.653327    1.948793    0.818175
H      -0.974056   -0.386458   -0.006832
H       0.964573   -0.017355   -2.123565
H       2.728739   -3.434507   -1.004169
H       3.654413   -1.904343   -1.115545
H       0.669764   -2.707232    1.023369
H       0.101018   -0.647337    2.092966
H       2.668214    0.576232    0.925490
H       1.591440    1.338953    2.110138
H       2.508026   -0.114351    2.537980
