20

C       0.144182    1.622976   -0.003702
C      -0.038559    0.101430   -0.048327
C       0.627742   -0.497550   -1.292471
C       0.518098   -2.014428   -1.392271
O       1.334520   -2.721778   -0.444218
C       0.843120   -2.989195    0.797552
O       1.009158   -4.066041    1.312151
N       0.161817   -1.952189    1.399745
C       0.503640   -0.536426    1.237524
H       1.203718    1.891239    0.082538
H      -0.241005    2.091600   -0.914588
H      -0.382248    2.065036    0.848695
H      -1.112980   -0.124538   -0.091170
H       0.173118   -0.066966   -2.193736
H       1.690941   -0.223706   -1.314714
H      -0.524173   -2.339681   -1.290040
H       0.883575   -2.352370   -2.365482
H      -0.121733   -2.219685    2.330608
H       1.592649   -0.388905    1.286635
H       0.074349   -0.017528    2.099444
