15

N      -0.145279    1.222182    0.496613
C      -0.068896    0.024001    0.125611
C      -1.076390   -0.950043   -0.474336
C       0.072122   -2.002283   -0.498410
N       0.947328   -0.972614    0.082763
C       2.272996   -1.085603    0.416217
O       2.893669   -2.117988    0.251623
C       2.876089    0.112294    0.976578
C       3.434753    1.068759    1.445579
H       0.742542    1.570485    0.858307
H      -1.913883   -1.186685    0.183523
H      -1.457660   -0.651295   -1.451861
H      -0.057749   -2.869379    0.152870
H       0.399545   -2.332750   -1.486575
H       3.937437    1.908585    1.861050
