18

C      -0.003834    1.507819    0.080647
C      -0.050709    0.011945    0.016329
C      -0.095349   -0.688969   -1.124468
C      -0.026765   -2.152848   -1.170431
N       0.065886   -2.769434   -2.278456
O       0.016714   -2.820142    0.025807
C      -0.538577   -2.144200    1.160697
C       0.032871   -0.742242    1.328164
O       1.368449   -0.745650    1.827900
H       0.875124    1.828908    0.651697
H       0.037977    1.958736   -0.913558
H      -0.881901    1.905704    0.605264
H      -0.124297   -0.209038   -2.096425
H       0.121592   -3.776285   -2.110910
H      -1.631265   -2.094177    1.061259
H      -0.287644   -2.762476    2.025111
H      -0.552992   -0.225403    2.097471
H       1.911729   -1.208128    1.178687
