14

O       0.115480    1.346876    0.330241
C      -0.008853    0.036684   -0.184099
C      -1.418693   -0.519127   -0.031836
C      -1.582380   -1.975256    0.260360
N      -1.861146   -0.984712    1.302272
C      -2.405412    0.199184   -0.803150
C      -3.167884    0.843585   -1.474111
H      -0.532257    1.896709   -0.126525
H       0.286885   -0.013938   -1.243388
H       0.688472   -0.585261    0.388334
H      -2.454327   -2.498051   -0.119770
H      -0.677143   -2.575333    0.320238
H      -1.078597   -0.910147    1.949180
H      -3.866918    1.390925   -2.057171
