23

C      -0.135324    1.587704    0.011218
C       1.269413    2.233304    0.010208
C       2.080518    1.839905    1.212087
C       3.065346    0.940119    1.262998
C       3.638142    0.124105    0.128780
C       2.819633   -1.173430   -0.188679
C       1.815977   -0.999725   -1.303538
C       0.578810   -0.504354   -1.225356
C      -0.106514    0.042062   -0.005142
H      -0.691385    1.918342    0.897491
H      -0.690071    1.954478   -0.861559
H       1.785352    1.950709   -0.912465
H       1.146156    3.323501   -0.010260
H       1.780875    2.313025    2.147266
H       3.503662    0.733590    2.238468
H       3.718689    0.721237   -0.785495
H       4.659222   -0.166263    0.398120
H       3.519930   -1.963800   -0.479136
H       2.332968   -1.515572    0.730586
H       2.175149   -1.294010   -2.288783
H       0.006075   -0.429870   -2.149810
H       0.388388   -0.309832    0.905150
H      -1.141481   -0.320936    0.029661
