19

C       0.047796    1.633413    0.034554
C      -0.047572    0.100996    0.006447
C       0.527210   -0.461010   -1.310141
C       0.025698   -1.847972   -1.692405
O      -0.358065   -2.068566   -2.827466
C       0.039995   -2.947451   -0.706596
C       0.412747   -2.923788    0.590063
C       0.824040   -1.812727    1.433433
C       0.620418   -0.504488    1.214466
H       1.090646    1.962095   -0.039505
H      -0.503391    2.075484   -0.800073
H      -0.366086    2.035534    0.964957
H      -1.115661   -0.170351    0.045599
H       0.277564    0.193583   -2.149352
H       1.623447   -0.498646   -1.239544
H      -0.264764   -3.894460   -1.143032
H       0.404797   -3.884687    1.102291
H       1.293918   -2.100876    2.370414
H       0.946445    0.193297    1.983145
