16

O      -0.126226    1.399010    0.128821
C      -0.058062   -0.003475    0.012381
C       0.584746   -0.542017    1.292839
O      -0.494438   -0.745377    2.226819
C      -1.681117   -0.838824    1.575535
N      -2.809551   -1.029196    2.106944
C      -1.445267   -0.673037    0.080503
C      -2.588083    0.044576   -0.606527
O      -2.445447    0.997471   -1.336133
H      -0.733557    1.703455   -0.560655
H       0.504872   -0.311804   -0.879083
H       1.096902   -1.496462    1.126699
H       1.276871    0.181932    1.724686
H      -2.729245   -1.113788    3.121185
H      -1.401093   -1.681272   -0.359075
H      -3.587146   -0.377287   -0.390626
