13

O       0.101336    1.485211   -0.008534
C       0.021224    0.096267   -0.043844
C      -1.425530   -0.371328   -0.038743
N      -2.342315    0.501545   -0.005414
N      -1.578723   -1.766629   -0.072674
C      -2.768235   -2.458361   -0.077605
O      -3.868786   -1.959226   -0.051975
H      -0.824763    1.786874    0.010114
H       0.515345   -0.307283   -0.945263
H       0.536425   -0.353503    0.823281
H      -3.274489    0.091493   -0.005109
H      -0.734803   -2.321304   -0.097261
H      -2.601537   -3.551576   -0.108762
