17

O       0.180763   -0.026734   -0.146981
C       0.037030    1.157566   -0.029935
C      -1.156467    2.136361    0.088659
C      -0.088078    3.269514    0.050589
C      -0.031909    4.199535    1.256810
C       1.222978    5.095504    1.244032
C       1.269550    6.011465    2.381122
N       1.288639    6.730174    3.285558
N       0.932651    2.207302    0.021378
H      -1.840380    2.103678   -0.760641
H      -1.721040    2.058066    1.019777
H      -0.117775    3.852327   -0.879122
H      -0.927498    4.830291    1.262782
H      -0.043702    3.605465    2.176462
H       2.126980    4.475609    1.263328
H       1.260993    5.686400    0.320902
H       1.912687    2.228701   -0.222422
