16

O       0.316877    1.224221   -0.396314
C       0.041539   -0.106022   -0.062897
C       0.177915   -0.558618    1.429094
O       1.087032   -0.574881    2.203938
C      -1.315907   -0.901496    1.485490
N      -1.981870    0.430020    1.681397
C      -2.495461    0.446858    0.288386
C      -1.449403   -0.630316   -0.050364
O      -1.754172   -1.665347   -0.927442
H      -0.001274    1.774971    0.328809
H       0.645925   -0.747466   -0.716360
H      -1.723357   -1.766137    2.010897
H      -2.668676    0.459515    2.423866
H      -3.510506    0.045693    0.174565
H      -2.419987    1.415928   -0.216174
H      -1.556788   -1.375996   -1.825504
