15

C       0.072430    1.532286   -0.089297
C       0.099233    0.021309    0.039138
O       0.812881   -0.515888   -1.097303
C       0.959605   -1.858830   -1.191798
O       1.070857   -2.420947   -2.235140
O       0.966411   -2.521364   -0.006489
C       1.435045   -1.821315    1.148761
C       0.763124   -0.469157    1.320388
O       0.766251    0.138957    2.358821
H       1.090083    1.927114   -0.143825
H      -0.470158    1.826688   -0.989562
H      -0.417478    1.958374    0.788326
H      -0.924324   -0.382532    0.026070
H       1.221687   -2.457568    2.009365
H       2.522239   -1.676351    1.091168
