12

N       0.157464    1.341120    0.158599
C      -0.055160   -0.007281    0.047255
C      -1.175688   -0.805842    0.001400
N      -0.779168   -2.115879   -0.028146
C       0.520307   -2.092928   -0.002344
O       1.028603   -0.801210    0.045763
C       1.505261   -3.168271   -0.019564
O       1.239488   -4.346708   -0.061917
H       1.048192    1.662701   -0.192634
H      -0.615303    1.918937   -0.135479
H      -2.212550   -0.510959   -0.010905
H       2.550535   -2.792532    0.011152
