15

O      -0.040292    1.293209    0.217840
N       0.018695   -0.079712    0.106766
C      -1.126449   -0.644509    0.022261
C      -1.241286   -2.111486   -0.155042
N      -2.111618   -2.732512    0.884257
C      -2.669774   -2.436925   -0.443659
C      -3.489454   -1.163122   -0.450219
C      -2.522869   -0.051343    0.001811
O      -2.833865    1.079827    0.266062
H       0.892181    1.537322    0.253864
H      -0.409817   -2.672803   -0.562557
H      -1.880279   -3.721460    0.948819
H      -2.928687   -3.254591   -1.107525
H      -3.844773   -0.916654   -1.458150
H      -4.358297   -1.199347    0.211920
