17

C      -0.214905    1.591662   -0.160284
C       0.045250    0.102385   -0.005307
O      -1.101131   -0.558475    0.647783
C      -0.370914   -0.685165    1.906505
C       0.892331   -0.411496    1.126488
C       2.010687   -1.027371    0.740826
C       2.042951   -1.011367   -0.760754
O       0.991741   -1.871681   -1.264160
C       0.736778   -0.478918   -1.238414
H       0.667683    2.104189   -0.556682
H      -1.046749    1.749683   -0.855195
H      -0.477085    2.047413    0.797815
H      -0.685869    0.079164    2.627778
H      -0.471193   -1.680290    2.349928
H       2.644919   -1.673490    1.335453
H       2.948559   -0.999208   -1.359058
H       0.621628   -0.003070   -2.209458
