18

O       0.021520   -0.104812   -0.194967
C       0.082430    1.071892    0.088173
C       1.299414    1.877452   -0.028863
C       1.397061    3.182525    0.265599
C       2.785191    3.685837   -0.007020
C       3.711315    3.946005    1.213318
C       4.247757    2.512532    0.977710
N       3.568444    2.456608   -0.346615
C       2.626679    1.342117   -0.539118
H      -0.809105    1.620801    0.465408
H       0.585855    3.809456    0.621265
H       2.783567    4.470315   -0.776008
H       4.446447    4.730363    1.026225
H       3.219041    4.134089    2.168484
H       5.334071    2.394131    0.921003
H       3.854225    1.783591    1.699350
H       2.957925    0.451938    0.007873
H       2.551509    1.050473   -1.594876
