18

C      -0.007978    1.530928    0.017200
C       0.030775   -0.006711   -0.017286
C       0.715743   -0.510929   -1.261815
N      -0.053921   -0.730224   -2.333758
C       0.590523   -1.144741   -3.432999
C       1.955334   -1.339183   -3.489544
C       2.668235   -1.076092   -2.306618
N       4.029979   -1.187099   -2.235282
N       2.042469   -0.666581   -1.195949
H       1.005251    1.943973    0.000038
H      -0.551744    1.922995   -0.847632
H      -0.506699    1.885793    0.924130
H       0.570553   -0.381401    0.857075
H      -0.988424   -0.401984    0.001141
H      -0.026329   -1.330817   -4.310078
H       2.449275   -1.673862   -4.394282
H       4.505938   -1.755824   -2.915076
H       4.417502   -1.179504   -1.304904
