18

C       0.068159    1.610449    0.056378
C       0.052788    0.090228    0.008999
C       1.090048   -0.633221   -0.892877
C       1.315189   -1.693182    0.237718
O       2.629641   -2.051726    0.518998
C       0.619619   -0.694568    1.223684
C       0.477635   -2.926382    0.016537
O       0.941978   -4.039943    0.088974
H       1.071591    1.983199    0.290256
H      -0.233155    2.041327   -0.904787
H      -0.617033    1.991466    0.821635
H      -0.959121   -0.258834   -0.225977
H       0.773673   -0.985520   -1.878533
H       2.011242   -0.053940   -1.000418
H       2.652168   -3.022229    0.498180
H       1.401569   -0.133578    1.742891
H      -0.079925   -1.096864    1.961597
H      -0.593907   -2.759362   -0.217090
