20

C       0.392753    1.023458    0.243645
O      -0.131855   -0.215623   -0.172271
C       0.762866   -0.964278   -0.976514
C       0.002113   -2.205890   -1.428879
O      -1.192705   -1.836583   -2.094338
C       0.806900   -3.053265   -2.405674
O       1.963219   -3.517698   -1.745389
C       2.774325   -4.326620   -2.562564
H       1.298710    0.894546    0.855210
H       0.645364    1.666844   -0.613563
H      -0.372730    1.518763    0.845978
H       1.069118   -0.373058   -1.856133
H       1.664921   -1.244954   -0.415209
H      -0.218159   -2.814746   -0.537289
H      -1.570694   -1.122046   -1.567374
H       0.181064   -3.890966   -2.752175
H       1.069814   -2.451332   -3.291902
H       2.236891   -5.223238   -2.909405
H       3.135629   -3.780874   -3.448677
H       3.634156   -4.639057   -1.964951
