16

C      -0.045212    1.370229   -0.337215
O       1.302232    1.628281    0.101101
C       1.439485    0.302891    0.647738
C       0.060749   -0.115045    0.083344
N      -0.924200   -0.642687    0.996258
C      -1.366060   -0.163722    2.181696
N      -2.281603   -0.963845    2.694426
C      -2.368394   -1.948148    1.758016
N      -1.571512   -1.804119    0.712868
H      -0.788763    1.946504    0.227819
H      -0.178942    1.559179   -1.407643
H       2.307013   -0.227964    0.241547
H       1.496190    0.303888    1.743644
H       0.105793   -0.817521   -0.745785
H      -1.000373    0.751394    2.622589
H      -3.035496   -2.792303    1.848464
