17

C       0.163482    1.456090    0.020421
C      -0.055915   -0.012703    0.017417
C      -1.150086   -0.818083    0.051481
C      -2.589028   -0.409266    0.112742
C      -0.660749   -2.177350    0.010543
C       0.695063   -2.085812   -0.039524
N       1.726438   -3.017415   -0.011707
O       1.089486   -0.791472   -0.036207
H       0.762057    1.778233    0.881498
H       0.686841    1.794010   -0.882801
H      -0.795429    1.977331    0.065689
H      -3.150664   -0.789525   -0.748947
H      -3.079187   -0.803256    1.011042
H      -2.701659    0.678161    0.125892
H      -1.248776   -3.081734    0.017785
H       1.431367   -3.929013   -0.333447
H       2.539971   -2.706353   -0.528305
