20

C       0.434484    1.314083    0.722432
C       0.114265   -0.059819    0.176890
N       0.763092   -0.454731   -1.162582
C       2.086102   -1.288488   -1.077619
C       3.008415   -1.425947    0.145393
C       1.985680   -1.249575    1.263409
C       2.329561   -0.532266    2.529528
C       0.739008   -1.365748    0.731117
C       0.796706   -1.869642   -0.712732
H       1.508178    1.463393    0.854111
H       0.067579    2.070438    0.020971
H      -0.060556    1.480147    1.684770
H      -0.959961   -0.141343   -0.026097
H       2.490642   -1.364110   -2.082826
H       3.554586   -2.378623    0.070693
H       3.767754   -0.640306    0.247188
H       3.044168    0.285990    2.372237
H       1.437420   -0.137160    3.023381
H       2.807772   -1.223277    3.238075
H       0.221648   -2.659809   -1.183677
