17

C       0.313681    1.530909    0.197870
N       1.193574    0.430787   -0.224477
C      -0.215292    0.143288    0.093500
C      -0.453774   -0.691444    1.292565
C       0.516359   -0.991376    2.388274
C      -0.155090   -2.135319    1.649555
C      -1.619966   -2.196823    2.059668
O      -1.804892   -0.782135    1.773084
H       0.540538    1.939629    1.177926
H      -0.011109    2.258515   -0.540807
H       1.318086    0.449403   -1.232685
H      -0.894020   -0.058044   -0.733178
H       1.557666   -0.839608    2.125926
H       0.245831   -0.767315    3.417180
H       0.394195   -2.894465    1.109873
H      -2.242200   -2.806343    1.394410
H      -1.848452   -2.440403    3.104406
