19

C      -0.359647    1.388379   -0.208798
C       0.220844    0.003987    0.112814
C       0.876694   -0.633442   -1.093088
C       0.933735   -2.093103   -1.367936
C       0.014690   -3.064076   -0.623548
N      -1.290138   -2.621015   -1.071851
C      -1.269522   -1.513357   -1.884999
O      -2.225461   -0.891705   -2.276844
N       0.101395   -1.221697   -2.223500
H       0.415296    2.059793   -0.593968
H      -1.145900    1.309425   -0.964075
H      -0.786259    1.848551    0.687255
H       0.985124    0.089890    0.896013
H      -0.565026   -0.640477    0.518545
H       1.717677   -0.054199   -1.472717
H       1.819201   -2.513279   -1.834630
H       0.223317   -4.096070   -0.929533
H       0.122362   -3.009926    0.468248
H      -2.160979   -2.942406   -0.682307
