19

C      -0.003774    1.488005    0.079117
C       1.319824    0.766530    0.001083
O       2.160856    0.441095    1.068555
C       2.395820   -0.986828    1.036508
C       1.071233   -1.821350    0.886788
C      -0.054307   -0.841980    1.273402
C       0.023864   -0.013362   -0.013307
C       0.001782   -1.075712   -1.082592
C       0.661208   -2.122117   -0.570261
H      -0.346295    1.900935    1.022633
H      -0.253842    2.092786   -0.787499
H       1.839970    0.860146   -0.953696
H       3.102431   -1.225157    0.228630
H       2.875768   -1.212264    1.992251
H       1.141148   -2.721982    1.501887
H      -1.020668   -1.345800    1.358822
H       0.146894   -0.271762    2.181278
H      -0.391948   -0.968434   -2.085330
H       0.898103   -3.047717   -1.080531
