19

C      -0.129779    1.559553    0.054486
C       0.029965    0.036113   -0.012471
C       0.841906   -0.456656   -1.256141
C       2.176647   -0.888961   -0.665705
O       2.785249    0.270950   -0.000700
C       2.312682   -0.207757    1.259660
C       0.816772   -0.547833    1.167423
C       1.858942   -1.528594    0.717458
O       1.930668   -2.844647    1.109268
H       0.848834    2.045860    0.034968
H      -0.715174    1.930735   -0.793732
H      -0.647039    1.861122    0.971827
H      -0.967024   -0.418331   -0.025358
H       0.356751   -1.314989   -1.735660
H       0.966573    0.325882   -2.010564
H       2.885041   -1.381730   -1.335957
H       2.821532    0.117598    2.159259
H       0.330994   -0.729668    2.120805
H       2.856542   -3.113495    1.107294
