18

C      -0.478800    1.118214    0.231868
O      -0.273216   -0.279675    0.377217
C       0.911013   -0.629014    1.028489
O       0.872155   -0.293840    2.412009
C       0.412661   -1.366696    3.156618
N       0.245322   -1.333787    4.403806
C       0.187867   -2.543903    2.240372
C       1.005081   -2.169734    0.989205
O       0.581604   -2.724035   -0.224983
H       0.341461    1.578736   -0.336304
H      -1.413154    1.247218   -0.317011
H      -0.557414    1.608532    1.208154
H       1.766030   -0.095071    0.596117
H       0.471165   -0.407754    4.772291
H       0.482296   -3.480578    2.712221
H      -0.873422   -2.609872    1.977659
H       2.051688   -2.458870    1.127823
H      -0.174781   -2.196100   -0.512832
