15

O       0.135320    1.255416   -0.330789
C       0.045656   -0.038889    0.242049
C      -1.354966   -0.604018    0.130681
C      -1.891208   -1.265861   -1.090791
O      -0.835604   -1.980786   -1.786780
C      -0.697294   -2.837286   -0.686720
N      -0.012461   -3.876409   -0.554703
C      -1.691140   -2.103514    0.154531
H       0.016856    1.158342   -1.281494
H       0.773226   -0.730279   -0.200617
H       0.306590    0.079318    1.298225
H      -2.109455   -0.019444    0.654092
H      -2.776863   -1.017549   -1.659290
H       0.521617   -4.080453   -1.400993
H      -2.390347   -2.544729    0.848977
