18

C      -0.085060    1.652818    0.212085
N      -0.303219    0.347810   -0.405390
C      -0.162049   -0.808200    0.473895
C      -1.505642   -0.361430    0.012209
C       1.352023    2.063234    0.110931
C       2.322920    1.564399   -0.718192
N       3.456234    2.296274   -0.431946
C       3.124971    3.188769    0.541836
N       1.865150    3.075998    0.893733
H      -0.723096    2.378612   -0.309728
H      -0.389889    1.677417    1.273478
H       0.309470   -1.683877    0.037053
H       0.092523   -0.624753    1.516479
H      -2.148363    0.117491    0.749549
H      -2.033319   -0.903041   -0.767871
H       2.307249    0.785012   -1.459625
H       4.361081    2.179895   -0.855499
H       3.838966    3.887007    0.952761
