23

C       0.253837    0.910394   -2.043597
C       0.246353    0.075524   -0.760985
C       0.489329    0.939355    0.478306
N      -1.064644   -0.572116   -0.643906
C      -1.289658   -1.819291   -1.360248
C      -1.234154   -1.801104    0.132307
C      -0.126022   -2.493894    0.863885
C      -0.126018   -2.515705    2.349964
N      -0.426622   -3.740995    1.590104
H       1.216090    1.416480   -2.169023
H       0.083407    0.281969   -2.923267
H      -0.536748    1.666442   -2.008685
H       1.059604   -0.666973   -0.836863
H      -0.300392    1.690989    0.575430
H       0.494669    0.332040    1.387848
H       1.452256    1.454477    0.406546
H      -2.235417   -1.913280   -1.888290
H      -0.439827   -2.276735   -1.868438
H      -2.178209   -1.828644    0.681158
H       0.831749   -2.526678    0.352299
H       0.811535   -2.535353    2.898225
H      -0.939215   -2.004957    2.860537
H      -1.431738   -3.904641    1.584788
