19

C      -0.027158    1.462502    0.001915
C       0.004988   -0.052866   -0.003736
C       0.631612   -0.714930   -1.237800
O       0.330569   -2.117072   -1.083681
C      -0.713206   -2.189331   -0.145883
C      -0.384492   -1.887003    1.362091
C       0.645951   -0.753689    1.241309
O      -1.633907   -1.133425    1.436995
C      -1.371354   -0.817012    0.053815
H       0.982770    1.886326    0.034585
H      -0.523509    1.854609   -0.893199
H      -0.570675    1.830249    0.878013
H       0.195119   -0.342601   -2.177598
H       1.718155   -0.589242   -1.288843
H      -1.351519   -3.053498   -0.322060
H      -0.276341   -2.645283    2.137159
H       1.665907   -1.099599    1.054791
H       0.631443   -0.127427    2.136363
H      -2.222393   -0.422064   -0.500791
