23

C      -0.036892    1.609769    0.023574
C      -0.014775    0.079648    0.067950
C      -1.409668   -0.547540   -0.031129
C      -1.387677   -2.078285    0.009594
C      -2.781136   -2.700825   -0.086376
C      -2.767390   -4.224591   -0.131670
O      -1.771135   -4.865616   -0.353935
C      -4.119987   -4.887083    0.123623
O      -4.028618   -6.267713   -0.106470
H       0.972372    2.026836    0.096426
H      -0.480039    1.972740   -0.910629
H      -0.627454    2.021827    0.849641
H       0.610916   -0.303097   -0.748948
H       0.465476   -0.254042    0.997241
H      -2.037195   -0.164980    0.786689
H      -1.891878   -0.212823   -0.960820
H      -0.770825   -2.469987   -0.806170
H      -0.905566   -2.418818    0.934298
H      -3.423938   -2.370261    0.741326
H      -3.290818   -2.356392   -0.999178
H      -4.403204   -4.646656    1.164308
H      -4.868494   -4.393208   -0.520644
H      -4.884135   -6.659945    0.090197
