17

C       0.034173    1.565400    0.042538
C      -0.030480    0.039723    0.023605
C      -1.462121   -0.473229    0.013656
O      -2.419169    0.270010    0.019667
N      -1.618049   -1.872359   -0.002033
C      -0.492732   -2.804308   -0.009207
C      -2.909512   -2.405381   -0.010985
O      -3.144956   -3.589769   -0.023993
H       1.074880    1.900280    0.048993
H      -0.463123    1.987996   -0.833422
H      -0.467024    1.966358    0.926424
H       0.493486   -0.362780   -0.852663
H       0.489387   -0.384373    0.892071
H       0.126021   -2.689174    0.884844
H      -0.917199   -3.807733   -0.023006
H       0.132635   -2.667330   -0.895500
H      -3.672190   -1.617495   -0.003897
