21

C      -0.005866    1.041894    0.511211
O      -0.168031   -0.010814   -0.420671
C      -1.371553   -0.689262   -0.251932
C      -1.495147   -2.027706   -0.906881
C      -1.434553   -1.940375    0.602771
C      -0.191156   -2.399334    1.373685
C      -0.707157   -2.519966    2.788600
C      -2.033274   -2.409316    2.854731
C      -2.656350   -2.194216    1.494632
H       0.965486    1.501325    0.313722
H      -0.790640    1.804632    0.392978
H      -0.031807    0.679079    1.548311
H      -2.249966   -0.039022   -0.242744
H      -2.434660   -2.284899   -1.386109
H      -0.610128   -2.397569   -1.415116
H       0.182444   -3.368571    1.011200
H       0.641738   -1.695534    1.267500
H      -0.052404   -2.709658    3.632184
H      -2.625721   -2.492236    3.759275
H      -3.368480   -1.358641    1.477058
H      -3.221889   -3.083952    1.178653
