15

C      -0.027135    1.510126   -0.068221
C       1.536681    1.359177    0.027681
C       1.133863    0.155269    0.958176
N      -0.079550   -0.027048    0.026020
C       0.670870   -0.311251   -1.198057
C       1.730443    0.557231   -1.249986
N       2.353731    0.230478   -2.386622
N       1.693272   -0.806513   -3.008638
N       0.657826   -1.127442   -2.261315
H      -0.482334    1.958695    0.819042
H      -0.455716    1.921830   -0.983226
H       2.216360    2.159362    0.315142
H       1.798336   -0.708593    1.009504
H       0.802277    0.459605    1.954711
H       3.178616    0.601773   -2.829398
