15

N      -0.068674    1.395880    0.090199
C       0.066767    0.047737   -0.199602
O       1.101825   -0.461322   -0.546288
N      -1.153412   -0.661776   -0.102588
C      -2.449821   -0.099379   -0.182939
C      -3.405537   -1.022062   -0.071602
C      -2.766156   -2.368413    0.105506
C      -1.259589   -2.070137    0.077052
O      -0.354179   -2.842966    0.214019
H       0.822518    1.867680    0.136630
H      -0.724561    1.668242    0.806740
H      -2.544642    0.959935   -0.366822
H      -4.466901   -0.835952   -0.132015
H      -3.014624   -2.864158    1.050809
H      -3.009890   -3.079600   -0.692484
