14

O       0.066032    0.014816   -0.194673
C       0.015246    1.216334   -0.078931
N      -1.090968    2.030088   -0.271657
C      -0.838370    3.385790    0.177621
C       0.713594    3.461800    0.060481
N       1.067537    2.060470    0.288681
C       1.169344    3.974368   -1.234637
C       1.569379    4.393131   -2.287633
H      -1.999113    1.605316   -0.177662
H      -1.325875    4.131690   -0.453179
H      -1.137396    3.549115    1.222402
H       1.118397    4.095710    0.856199
H       1.993171    1.743335    0.042469
H       1.917370    4.757896   -3.222695
