23

C      -0.142637    1.498540   -0.085245
C       0.026111   -0.014476    0.003363
C       1.210785   -0.606549   -0.813398
C       2.103693   -0.419345    0.442193
C       0.783148   -0.581127    1.260908
C       0.643315    0.101704    2.609776
C       0.445012   -2.087469    1.317880
C       0.958201   -2.805359    0.049944
O       0.961944   -1.974010   -1.108273
H       0.793992    2.039936    0.083406
H      -0.508578    1.781574   -1.078403
H      -0.868962    1.861735    0.649576
H      -0.929493   -0.505496   -0.211266
H       1.495948   -0.129323   -1.754338
H       2.922670   -1.123184    0.610068
H       2.499199    0.596945    0.500726
H       0.844445    1.175370    2.542350
H      -0.367242   -0.024674    3.016893
H       1.345613   -0.323001    3.336753
H       0.908799   -2.554935    2.195514
H      -0.639866   -2.204580    1.428067
H       1.977457   -3.175084    0.232556
H       0.342059   -3.675333   -0.195397
