19

C      -0.056929    1.443034    0.075364
C       0.050134   -0.044492    0.029173
O      -1.158957   -0.792222   -0.179759
C      -0.562992   -1.927482    0.523556
C       0.660471   -1.080960    0.929135
C       1.229895   -0.855881   -0.470391
C       0.905004   -2.040642   -1.379765
C      -0.065775   -2.915902   -0.535050
O       0.562988   -4.038966    0.062076
H       0.915002    1.889438    0.304842
H      -0.390570    1.833373   -0.892577
H      -0.776398    1.759023    0.837069
H      -1.224538   -2.336759    1.287800
H       1.176254   -1.014506    1.877154
H       2.174686   -0.331528   -0.563703
H       0.441586   -1.719929   -2.316894
H       1.797423   -2.622388   -1.628886
H      -0.890379   -3.316201   -1.130133
H       1.317219   -3.715587    0.568815
