15

O       0.106310    0.068365   -0.584355
C       0.020455    1.179818   -0.160268
C      -1.146948    2.050519    0.333045
C      -0.104198    3.186803    0.627561
C       0.255624    3.348775    2.080119
C       1.412369    2.760687    2.408113
C       2.029221    2.098731    1.228276
O       3.072492    1.497948    1.183447
C       1.050716    2.318757    0.057420
H      -1.850198    2.278883   -0.473449
H      -1.707934    1.660794    1.186509
H      -0.316564    4.135079    0.130758
H      -0.397874    3.868418    2.773758
H       1.873612    2.726336    3.386783
H       1.573886    2.625788   -0.849264
