18

C       0.148336    0.959095   -0.404392
O      -0.416124    0.027765    0.506058
C       0.523607   -0.524518    1.401157
C      -0.104466   -1.398699    2.505725
C       0.973947   -2.490255    2.214231
O       0.573985   -3.823710    2.115646
C       1.284946   -1.779119    0.859095
O       0.555336   -2.395036   -0.187859
H       0.918182    0.497478   -1.037664
H      -0.664326    1.321403   -1.037785
H       0.594536    1.810294    0.128615
H       1.199970    0.250322    1.783376
H      -0.160924   -0.980302    3.512007
H      -1.096903   -1.743089    2.203444
H       1.812864   -2.433632    2.914706
H       0.205294   -3.906604    1.223304
H       2.332780   -1.677524    0.560221
H      -0.191942   -1.806236   -0.374529
