20

C      -0.056551    1.442491   -0.280927
C      -0.023025    0.000687   -0.079341
C       0.016167   -1.191262    0.086475
C       0.030159   -2.636418    0.282583
C      -1.369864   -3.272287    0.172885
C      -1.328400   -4.786408    0.405400
N      -2.640221   -5.406878    0.317901
C      -3.002522   -6.244039   -0.691537
O      -2.284492   -6.599364   -1.601863
H       0.569074    1.741194   -1.129409
H      -1.074805    1.793262   -0.482875
H       0.307683    1.978287    0.602763
H       0.696839   -3.104213   -0.454425
H       0.459667   -2.871374    1.266430
H      -2.036706   -2.798380    0.903493
H      -1.789788   -3.068187   -0.817315
H      -0.712476   -5.275965   -0.353088
H      -0.885859   -5.004942    1.386252
H      -3.338970   -5.163206    1.002037
H      -4.053092   -6.580869   -0.584290
