21

C      -0.005979    1.568467    0.017610
C       0.044546    0.039708    0.021465
C       0.772984   -0.569565   -1.202892
C       1.281989   -1.948604   -0.733866
O       2.475342   -2.396095   -1.369089
C       1.527086   -1.785335    0.752633
O       1.562206   -2.945329    1.524880
C       2.291718   -0.562491    1.196687
C       0.771855   -0.576370    1.217384
H       1.003916    1.992104    0.044617
H      -0.505352    1.946269   -0.881244
H      -0.551163    1.949725    0.887510
H      -0.986261   -0.340064    0.035555
H       0.126207   -0.633386   -2.083223
H       1.638396    0.041338   -1.482953
H       0.490673   -2.706490   -0.845358
H       2.260492   -2.641983   -2.274028
H       2.358560   -3.425568    1.269932
H       2.774429   -0.652620    2.163291
H       2.830340    0.043377    0.476016
H       0.284856   -0.578599    2.186479
