19

C      -0.760453    1.234841   -0.003187
C       0.192071    0.042534    0.007871
C       1.175423    0.019348   -1.200159
N       2.332149   -0.652921   -0.638182
C       3.513927   -1.205025   -1.073102
C       4.166677   -1.573198    0.080423
N       3.427463   -1.252617    1.202155
C       2.337833   -0.699139    0.722611
C       1.103695   -0.050635    1.268709
H      -0.208008    2.179726    0.049214
H      -1.369939    1.251978   -0.913057
H      -1.442521    1.198857    0.851890
H      -0.394786   -0.881916   -0.040561
H       0.769450   -0.520512   -2.060608
H       1.436500    1.034540   -1.528072
H       3.767470   -1.297378   -2.115798
H       5.126424   -2.061071    0.164500
H       1.328173    0.948543    1.665854
H       0.640168   -0.621260    2.077211
