23

C      -0.629482    1.427025    0.544248
C       0.123172    0.194246    0.022196
C       0.958001   -0.503546    1.086566
C       0.246474   -1.296765    2.172670
C       1.036032   -2.046104    1.151655
C       0.386806   -2.950369    0.129052
C       2.256446    0.127074    1.521695
C       2.915338    1.143683    0.602551
O       2.802526   -0.208300    2.554077
H       0.050776    2.184970    0.946037
H      -1.213631    1.895371   -0.254072
H      -1.318138    1.150676    1.348861
H      -0.608745   -0.510504   -0.382828
H       0.755896    0.478960   -0.826412
H       0.650916   -1.211766    3.174197
H      -0.836372   -1.339771    2.102377
H       2.003568   -2.393937    1.502407
H      -0.625429   -2.629626   -0.131452
H       0.972442   -3.006669   -0.795201
H       0.308624   -3.966282    0.532069
H       3.100398    0.704625   -0.384446
H       2.278753    2.019844    0.446749
H       3.861700    1.454927    1.045664
