21

C      -0.330559    1.507526    0.083815
C       0.098624    0.042779   -0.036784
C       0.640678   -0.534638    1.274305
C       1.073067   -2.007479    1.153173
C       1.597865   -2.577827    2.436477
N       2.906031   -2.770002    2.608602
N       3.018885   -3.256064    3.861044
C       1.827020   -3.382396    4.491305
C       0.873147   -2.949610    3.597170
H       0.509950    2.142173    0.385950
H      -0.713320    1.892538   -0.866704
H      -1.120163    1.628414    0.834021
H      -0.753177   -0.562747   -0.374949
H       0.864826   -0.052066   -0.817685
H       1.498128    0.060110    1.614444
H      -0.122727   -0.443154    2.058523
H       0.219057   -2.603990    0.806912
H       1.855338   -2.098581    0.392314
H       3.931445   -3.490343    4.211759
H       1.753753   -3.764195    5.497515
H      -0.192815   -2.910070    3.754335
