19

C       0.184515    1.570465   -0.186771
C       1.679365    1.493052    0.249465
C       1.425273    0.057663    0.724839
C       0.015060    0.049870    0.115041
C       2.365238   -1.122516    0.814732
O       3.750793   -0.878173    0.857916
C       3.983269    0.038010    1.914152
O       2.857083    0.025902    2.778118
C       1.786531   -0.545373    2.064957
H      -0.418168    2.205376    0.466066
H       0.004691    1.871617   -1.220605
H       2.388127    1.557042   -0.581410
H       1.987259    2.197485    1.026650
H      -0.801795   -0.218825    0.791274
H      -0.065814   -0.568336   -0.784640
H       2.123275   -2.089371    0.388372
H       4.873473   -0.271768    2.474090
H       4.131244    1.049671    1.506870
H       1.055598   -1.019145    2.710418
