20

C       0.369617    0.830836   -0.686874
N      -0.073537    0.020724    0.450368
C      -1.047667    0.645055    1.339344
C      -1.454839   -0.443275    0.407607
C       1.548723    1.672963   -0.313421
C       1.710050    2.985549   -0.454484
C       3.071467    3.394659    0.029530
O       3.681361    2.192420    0.490115
C       2.799992    1.089592    0.293297
H       0.650144    0.131463   -1.487010
H      -0.436041    1.472607   -1.085248
H      -0.918122    0.447130    2.399299
H      -1.379274    1.654640    1.101524
H      -2.062109   -0.160426   -0.451162
H      -1.626917   -1.451542    0.773347
H       0.989761    3.683856   -0.863375
H       3.683079    3.847107   -0.768578
H       3.024682    4.128224    0.850652
H       2.599888    0.588137    1.250549
H       3.269026    0.343332   -0.369463
