17

C      -0.150081    1.551442   -0.009209
C       0.011974    0.059133    0.039459
C      -1.220962   -0.869627    0.139227
N      -0.493236   -1.759729    1.093474
C       0.643283   -0.806548    1.192014
C       1.736510   -1.130163    0.153734
O       1.003147   -0.439907   -0.883784
C       0.999395   -0.323988    2.503275
N       1.266622    0.068104    3.558688
H       0.814885    2.050899    0.111357
H      -0.565500    1.843224   -0.980367
H      -0.828771    1.899570    0.774649
H      -2.095673   -0.368484    0.570643
H      -1.504445   -1.364738   -0.793533
H      -0.974031   -1.900563    1.974079
H       2.704559   -0.652800    0.345021
H       1.861118   -2.197038   -0.050491
