23

C       0.138649    1.471231    0.079680
C      -0.094156   -0.045820   -0.028062
C      -1.592735   -0.382467   -0.067503
C       0.620702   -0.595663   -1.230281
C       2.071862   -0.966634   -1.335261
C       1.004527   -1.978905   -1.725827
C       0.886656   -3.353393   -1.135551
C       0.403887   -1.520414   -3.051061
O       0.146305   -0.190395   -2.528741
H       1.205362    1.703406    0.154076
H      -0.256475    1.982002   -0.804075
H      -0.363790    1.880523    0.961768
H       0.352871   -0.527758    0.852165
H      -2.051873    0.036103   -0.967754
H      -1.757174   -1.464702   -0.077124
H      -2.108518    0.030593    0.805104
H       2.696645   -0.492525   -2.088552
H       2.570685   -1.185262   -0.395026
H       1.137599   -3.348006   -0.069910
H      -0.130464   -3.748884   -1.236957
H       1.568317   -4.058863   -1.626542
H       1.056186   -1.502121   -3.933233
H      -0.537749   -2.025617   -3.300733
