22

C       0.127150    1.389625   -0.077826
N       0.017397   -0.037140    0.134304
C      -1.335559   -0.565954    0.069808
C      -1.234172   -1.917882    0.774308
O      -2.080220   -2.773176    0.794506
C       0.138172   -1.987651    1.473152
C       0.003209   -2.536148    2.894894
C       1.049259   -2.893405    0.617602
C       0.588521   -0.517392    1.394290
H       1.179139    1.690289   -0.037086
H      -0.262137    1.653079   -1.066556
H      -0.427287    1.982477    0.675569
H      -2.073935    0.047150    0.628443
H      -1.704456   -0.665639   -0.956020
H      -0.462520   -3.525156    2.871597
H       0.984413   -2.626374    3.372750
H      -0.619474   -1.886670    3.518564
H       1.189787   -2.473259   -0.382002
H       2.031846   -2.990472    1.091644
H       0.613820   -3.891981    0.519751
H       1.677397   -0.398923    1.384554
H       0.198968    0.045525    2.266113
