19

C       0.029041    1.235013    0.585694
C       1.448093    1.560452    0.001263
C       2.603043    1.814991    0.969887
C       3.053140    0.580400    1.704758
C       2.712300   -0.663626    1.368250
C       1.841578   -0.985378    0.192760
O       0.441010   -1.230572    0.558727
C       0.009103   -0.096723   -0.213088
C       1.442002    0.189277   -0.726589
H      -0.015143    1.076430    1.665537
H      -0.740634    1.955475    0.296865
H       1.382449    2.383955   -0.714641
H       3.461596    2.245331    0.432839
H       2.308129    2.582327    1.698974
H       3.699756    0.740822    2.564997
H       3.059565   -1.504130    1.963683
H       2.228471   -1.858454   -0.346976
H      -0.862049   -0.322608   -0.832487
H       1.763010    0.134556   -1.765969
