17

C      -0.295793    1.309213    0.109565
O       0.250480    0.008414   -0.072919
C       0.766557   -0.559214    1.085166
C      -0.192778   -1.205038    2.077144
C       0.673232   -2.068637    1.197014
C       0.085598   -2.873253    0.060129
C       1.949905    0.096411    1.607076
N       2.887847    0.635266    2.017504
H       0.470643    2.021523    0.440279
H      -0.682132    1.621067   -0.862250
H      -1.113494    1.299800    0.842495
H       0.025766   -1.131334    3.135940
H      -1.241684   -1.119496    1.812642
H       1.524413   -2.527296    1.691424
H      -0.714189   -2.323505   -0.439239
H       0.848986   -3.108670   -0.687723
H      -0.322093   -3.816711    0.437113
