21

C       0.153032    1.640965    0.156111
C       0.204337    0.112188    0.138611
C       0.389470   -0.452647   -1.284742
C       0.443483   -1.909672   -1.327380
C       0.486040   -3.114477   -1.331267
C       0.540144   -4.559930   -1.371928
C      -0.462793   -5.328961   -2.278932
O       0.602800   -6.081337   -2.887534
C       1.604285   -5.250109   -2.272751
H       1.077243    2.074741   -0.241865
H      -0.677437    2.018161   -0.451128
H       0.019528    2.019815    1.173767
H       1.025076   -0.245426    0.770364
H      -0.716004   -0.301423    0.565889
H      -0.429787   -0.097020   -1.924628
H       1.309193   -0.039464   -1.721305
H       0.552818   -4.974853   -0.359741
H      -1.188564   -5.973504   -1.771490
H      -0.982491   -4.686374   -3.000589
H       2.077231   -4.569118   -2.991229
H       2.374283   -5.837227   -1.760832
