20

C      -0.043809    1.731701    0.493467
C       0.003818    0.283667   -0.025075
C      -1.347386   -0.334219   -0.163821
C      -2.068800   -0.803436   -1.224708
C      -1.693666   -0.883264   -2.674785
C      -1.386638   -2.314654   -3.147481
C      -3.282670   -1.233090   -0.611692
N      -3.296483   -1.041840    0.682231
O      -2.061802   -0.468667    0.973434
H       0.967805    2.134272    0.597328
H      -0.600227    2.375683   -0.194009
H      -0.534025    1.776585    1.469104
H       0.501874    0.246229   -0.998666
H       0.605468   -0.328001    0.658626
H      -2.506640   -0.470085   -3.284624
H      -0.823804   -0.244151   -2.862202
H      -1.130811   -2.327542   -4.211505
H      -0.547775   -2.739916   -2.588079
H      -2.249063   -2.972498   -3.000140
H      -4.150789   -1.674483   -1.083194
