13

C       0.013407    1.505625   -0.000089
C       0.011286    0.001997    0.010666
N       0.168001   -0.626922   -1.161675
C       0.163840   -1.958848   -1.135051
C       0.005192   -2.677351    0.047267
N      -0.151751   -2.064470    1.221225
C      -0.147206   -0.732049    1.191689
H       0.956054    1.883080   -0.408776
H      -0.788205    1.883857   -0.642301
H      -0.120857    1.914812    1.004138
H       0.290912   -2.471507   -2.085679
H       0.004589   -3.764168    0.048166
H      -0.274426   -0.220879    2.143342
