21

C      -0.021299    1.585943   -0.026358
C       0.041562    0.056866   -0.034831
C       0.674378   -0.521357    1.245850
C       0.757165   -2.019496    1.258634
C      -0.061878   -2.879869    1.920597
O       0.294434   -4.172322    1.695397
C       1.372998   -4.133877    0.868001
C       1.711009   -2.854089    0.559611
C       2.847052   -2.406203   -0.307183
H       0.979863    2.024200    0.054864
H      -0.479730    1.971396   -0.942335
H      -0.610815    1.953689    0.821143
H      -0.966466   -0.359811   -0.148491
H       0.610084   -0.284541   -0.908447
H       1.678770   -0.093708    1.368959
H       0.093295   -0.182271    2.112288
H      -0.906502   -2.733001    2.574562
H       1.789403   -5.089897    0.593914
H       2.496913   -1.896822   -1.212511
H       3.503254   -1.703960    0.220286
H       3.458495   -3.256137   -0.623214
