22

C       0.131661    1.590630   -0.059137
C      -0.012580    0.072549    0.077610
C      -1.474778   -0.440754    0.040930
C      -2.277720    0.071240    1.236666
O      -2.139935    0.034685   -1.129569
C      -1.457563   -1.992922   -0.012993
C      -2.839058   -2.638428    0.063111
O      -0.832169   -2.304565   -1.266470
H       1.184568    1.867677   -0.170082
H      -0.412392    1.946616   -0.937896
H      -0.254984    2.125010    0.814299
H       0.531491   -0.418192   -0.735613
H       0.455385   -0.269161    1.010389
H      -2.242123    1.161969    1.276935
H      -3.326774   -0.220046    1.154894
H      -1.873669   -0.319510    2.176298
H      -1.763906   -0.475553   -1.859394
H      -0.830029   -2.363991    0.812537
H      -3.509087   -2.184024   -0.671540
H      -2.767486   -3.713694   -0.141524
H      -3.279843   -2.529873    1.057275
H      -1.008273   -3.227214   -1.471187
