17

C      -0.325629    1.409096   -0.075847
C      -0.039609   -0.061318    0.036709
N       0.000799   -0.744299    1.115394
O      -0.235080    0.030161    2.252257
C       0.253567   -0.810478   -1.231989
C       0.145615   -2.346264   -1.253181
C      -0.985092   -2.099962   -2.227831
N      -1.765234   -2.825742   -2.885807
O      -0.876242   -0.719874   -2.177449
H       0.611159    1.977773   -0.125190
H      -0.886522    1.609677   -0.992060
H      -0.888724    1.762553    0.787651
H      -0.209722   -0.626656    2.956505
H       1.147061   -0.401209   -1.717332
H       1.000979   -2.880103   -1.668341
H      -0.150688   -2.791806   -0.304770
H      -2.403723   -2.266121   -3.453684
