25

C       0.223057    1.511775    0.151241
C       0.296042    0.006004   -0.043531
O       0.315392   -0.602089    1.238809
C       0.563019   -1.986073    1.253985
C      -0.606347   -2.808546    0.752041
C       1.990725   -2.424408    0.993456
C       1.431592   -2.444494    2.408998
C       1.941375   -1.395920    3.382117
C       1.178662   -3.789669    3.067522
H       1.097837    1.873397    0.699528
H       0.184533    2.020139   -0.817044
H      -0.671177    1.781544    0.720361
H      -0.570162   -0.340936   -0.627019
H       1.199643   -0.270529   -0.607943
H      -0.831562   -2.572118   -0.293246
H      -0.403313   -3.879518    0.801751
H      -1.502627   -2.598847    1.345496
H       2.159219   -3.370235    0.487038
H       2.713190   -1.651476    0.751910
H       2.070452   -0.427645    2.898571
H       1.238510   -1.261194    4.212718
H       2.902044   -1.707960    3.808249
H       2.084314   -4.128506    3.584214
H       0.379925   -3.723062    3.815802
H       0.904660   -4.568889    2.352601
