12

N      -0.074012    1.357124    0.011202
C      -0.039893    0.085942    0.003840
N       1.117718   -0.719732   -0.008039
N       1.212762   -2.056392   -0.016160
N       0.149797   -2.755836   -0.013342
C      -1.073397   -2.111212   -0.001947
C      -1.230344   -0.761244    0.006640
C      -2.522481   -0.162846    0.018211
N      -3.590811    0.281716    0.027496
H       0.853588    1.781504    0.007697
H       2.023300   -0.268719   -0.011255
H      -1.928338   -2.776595   -0.000257
