18

C      -0.035932    1.502749   -0.051446
C      -0.038862   -0.015588    0.018499
C      -1.350165   -0.737110    0.459510
C      -0.514709   -1.665294    1.391339
C       0.722262   -0.759267    1.162054
O       1.866620   -1.377891    0.588063
C       1.774197   -1.319770   -0.781991
O       2.586476   -1.799297   -1.521361
N       0.616326   -0.649025   -1.110140
H       0.981231    1.885399   -0.183152
H      -0.645697    1.857803   -0.890603
H      -0.452580    1.934316    0.863874
H      -2.019504   -0.070976    1.010172
H      -1.912515   -1.222109   -0.340176
H      -0.857188   -1.755999    2.423579
H      -0.354069   -2.665776    0.985383
H       1.039072   -0.159071    2.016432
H       0.497865   -0.343489   -2.062010
