17

C       0.556272    1.389336   -0.203775
C      -0.042468    0.032812    0.132931
O       0.142403   -0.884563   -0.977755
C       1.146579   -1.757269   -0.745400
O       1.555190   -2.528761   -1.566950
C       1.689504   -1.560494    0.674843
O       2.894786   -0.803410    0.626252
C       0.620324   -0.690635    1.344393
O       1.105471    0.157001    2.349582
H       1.633290    1.307734   -0.372847
H       0.088470    1.794046   -1.104674
H       0.385035    2.081001    0.624775
H      -1.123218    0.119308    0.270886
H       1.847679   -2.525538    1.167416
H       3.530822   -1.283707    0.084331
H      -0.125929   -1.347303    1.803859
H       2.011882    0.385701    2.105623
