20

C      -0.205704    1.506364   -0.178134
N       0.038877    0.086404    0.032194
C       1.355230   -0.536255   -0.157962
C       2.566256    0.341995   -0.118004
C       2.712247    0.936899    1.069652
C       3.718410    1.963296    1.480161
C       1.642691    0.451431    2.049894
O       0.904741    1.497637    2.677849
C       0.726884   -0.432926    1.201674
H       0.631626    2.166535    0.074739
H      -0.465979    1.655111   -1.231600
H      -1.062191    1.800287    0.434254
H       1.358246   -1.446924   -0.750344
H       3.202526    0.508385   -0.981154
H       4.396190    2.216872    0.661142
H       3.223596    2.887340    1.805185
H       4.324800    1.613404    2.326800
H       2.112327   -0.181194    2.822938
H       1.476339    1.919996    3.326443
H       0.236035   -1.266305    1.695818
