14

O      -0.058085    1.484231   -0.173862
C       0.043360    0.134177   -0.063410
C       0.094604   -1.035866   -0.990743
O       1.187560   -1.682692   -0.346335
C       0.900254   -0.893526    0.823795
C      -0.452105   -1.508149    1.332032
C      -0.943523   -0.903288    2.558690
N      -1.317956   -0.430437    3.545070
C      -1.052457   -0.898544    0.059922
H       0.723984    1.822875   -0.626399
H      -0.067848   -1.177475   -2.050381
H       1.746924   -0.731918    1.485890
H      -0.441563   -2.598669    1.419937
H      -2.093574   -0.819135   -0.221748
