17

N       0.059761   -1.135437   -0.020256
C       0.041123    0.020423   -0.020582
C       0.008270    1.467263    0.009632
C      -0.330301    2.274047    1.311157
C       0.478540    3.335559    0.504460
N       1.321974    2.218692   -0.071430
C      -0.481107    3.635473   -0.663888
C      -0.121558    3.097269   -2.026106
C      -0.846056    2.212994   -1.045779
H      -1.383497    2.463010    1.539909
H       0.201813    1.895629    2.188390
H       1.004074    4.163917    0.976852
H       1.911087    1.863765    0.682083
H      -1.222858    4.415093   -0.544163
H      -0.723773    3.463555   -2.851065
H       0.914738    2.893413   -2.259662
H      -1.859481    1.874303   -1.216513
