19

C      -0.013295    1.496017   -0.494475
C      -0.032037    0.044764   -0.071437
C       1.162931   -0.791577   -0.236000
O       0.790542   -0.287431    1.052875
C      -1.402372   -0.608690   -0.057302
O      -1.882735   -0.536815   -1.383635
C      -1.553361   -1.982476    0.644593
O      -2.537358   -1.456661    1.558607
C      -2.382447   -0.121264    1.045333
H       1.004084    1.891374   -0.451107
H      -0.398703    1.597826   -1.511605
H      -0.640746    2.101378    0.168796
H       1.066491   -1.868876   -0.362449
H       2.064515   -0.355733   -0.662962
H      -2.783806   -0.876702   -1.399859
H      -1.958376   -2.773683    0.000696
H      -0.664558   -2.344167    1.170908
H      -1.951503    0.558655    1.790467
H      -3.324597    0.300454    0.670399
