14

N      -0.140339    1.197585   -0.463064
C      -0.010547    0.050402    0.056126
N      -1.126937   -0.622978    0.543140
C      -1.091449   -1.985509    0.832285
C       0.080535   -2.580627    1.096419
C       1.288776   -1.699775    1.091357
O       1.162305   -0.625204    0.136967
C      -2.342170   -2.676636    0.831528
N      -3.366256   -3.215182    0.836773
H       0.768062    1.566247   -0.735359
H      -2.005277   -0.174300    0.336584
H       0.152742   -3.637507    1.305859
H       1.467317   -1.264867    2.086885
H       2.190102   -2.240441    0.795471
