20

C      -0.211469    1.313061    0.251113
N      -0.081027   -0.116326    0.004045
C       0.035698   -0.977739    1.175932
C      -1.297999   -1.255497    1.829169
C      -1.424646   -1.418128    3.281454
O      -1.850197   -0.211591    2.644752
C       0.050805   -0.684217   -1.240028
C       0.016975    0.255521   -2.436571
O       0.184398   -1.889383   -1.386984
H      -0.720705    1.810071   -0.574674
H      -0.807411    1.462777    1.153396
H       0.765382    1.796569    0.397903
H       0.477150   -1.918508    0.840440
H       0.705541   -0.506219    1.905623
H      -2.029387   -1.747096    1.187465
H      -2.221171   -2.038350    3.688574
H      -0.540756   -1.326936    3.911911
H       0.755745    1.058164   -2.352694
H       0.227615   -0.340166   -3.323922
H      -0.967321    0.721666   -2.550737
