19

C      -0.313493    1.402126   -0.038481
C      -0.075858   -0.056968    0.266244
O       0.873216   -0.510644    0.849382
O      -1.089982   -0.816591   -0.217662
C      -0.977406   -2.240261   -0.026836
C      -1.592257   -2.693392    1.317677
C      -2.967350   -2.844915    0.607341
C      -2.199388   -2.876816   -0.747663
O      -2.714090   -2.243529   -1.880711
H       0.491230    1.997193    0.391106
H      -0.351461    1.556681   -1.120812
H      -1.275856    1.721975    0.370738
H       0.034448   -2.554936   -0.281863
H      -1.171342   -3.650331    1.636336
H      -1.517021   -1.985516    2.143710
H      -3.590353   -3.705380    0.858216
H      -3.566895   -1.934252    0.690790
H      -1.965485   -3.906816   -1.033573
H      -2.654895   -1.294955   -1.716128
