19

C      -0.033786    1.334781    0.057915
O      -0.000881   -0.079219    0.010026
C       0.633060   -0.582091   -1.106642
C       0.016513   -0.475489   -2.537856
C       0.748602   -1.790081   -2.802507
C       0.821976   -2.131684   -1.324421
C       2.085316   -1.746204   -2.032490
O       3.126017   -2.601003   -2.329459
C       2.170614   -0.389211   -1.336263
H       0.978279    1.763618    0.076704
H      -0.577030    1.758888   -0.798638
H      -0.553093    1.611070    0.977848
H      -1.067592   -0.620528   -2.507140
H       0.263135    0.403298   -3.145057
H       0.616363   -2.487918   -3.619539
H       0.527203   -3.000992   -0.756843
H       3.512477   -2.328706   -3.169290
H       2.507995    0.486073   -1.904254
H       2.715827   -0.470411   -0.391896
