19

C       0.078019    1.559456    0.323111
C      -0.005439    0.069231   -0.052483
C      -1.395877   -0.447873   -0.149773
C      -2.144916   -0.927513   -1.181570
O      -1.711136   -1.039928   -2.471641
C      -3.443039   -1.272806   -0.665070
C      -4.590372   -1.839582   -1.439967
C      -3.377725   -0.968972    0.658940
O      -2.161216   -0.471681    0.991081
H       1.120743    1.883408    0.399063
H      -0.420205    2.179716   -0.428158
H      -0.406601    1.743742    1.286186
H       0.472872   -0.101815   -1.022285
H       0.558787   -0.519682    0.683437
H      -2.397001   -1.469508   -2.990800
H      -4.342239   -2.809060   -1.891608
H      -5.459473   -1.996938   -0.795987
H      -4.903948   -1.172524   -2.253250
H      -4.092631   -1.050196    1.461896
