18

O      -0.536128    0.127374   -0.276165
C      -0.217967    1.197668    0.171756
C       1.142816    1.834823   -0.017019
C       1.541064    2.668818    1.214234
C       1.775116    1.851842    2.405353
N       1.956274    1.189950    3.335008
C       2.260889    0.916779   -0.581162
C       2.568999    1.971279   -1.676749
C       1.232881    2.687043   -1.341833
H      -0.953110    1.825850    0.728477
H       2.451694    3.238642    0.999900
H       0.757687    3.403079    1.441439
H       3.063830    0.654525    0.110943
H       1.823599    0.000255   -0.981118
H       3.441619    2.586041   -1.442072
H       2.676808    1.602438   -2.698137
H       0.432610    2.433199   -2.040537
H       1.253756    3.772210   -1.212045
