18

C       0.167638    1.272703   -0.193898
N       0.036625    0.053898    0.576005
C      -1.130405   -0.889520    0.509183
C      -0.128579   -2.021967    0.927863
C       0.331127   -3.281143    0.192134
C       1.837977   -2.966829   -0.132195
O       2.625888   -3.791507   -0.534860
C       2.040602   -1.505955    0.002676
C       0.902319   -1.011552    0.528947
H       1.120314    1.751473    0.047151
H       0.134480    1.086313   -1.278474
H      -0.637359    1.963466    0.070464
H      -1.950006   -0.647438    1.190598
H      -1.506240   -0.994237   -0.516404
H      -0.173564   -2.172748    2.009304
H       0.233005   -4.209612    0.758160
H      -0.179466   -3.420145   -0.767095
H       2.890779   -0.990385   -0.418689
