20

C      -0.016333    1.510364   -0.069889
C       0.083638   -0.004258   -0.008884
O       0.683528   -0.464620   -1.202627
C       0.820038   -1.864145   -1.252125
C       1.495418   -2.256004   -2.546883
O       2.859456   -1.821309   -2.486322
C       3.619521   -2.173748   -3.551393
N       4.900253   -1.724938   -3.375219
O       3.227392   -2.819058   -4.495259
H       0.977025    1.955891   -0.173848
H      -0.621802    1.820515   -0.926215
H      -0.478633    1.899164    0.842281
H       0.682526   -0.318443    0.862960
H      -0.917186   -0.453855    0.111822
H       1.411100   -2.233261   -0.397581
H      -0.166512   -2.357668   -1.209328
H       1.459422   -3.340819   -2.685678
H       0.995574   -1.785213   -3.398856
H       5.062984   -1.000405   -2.696313
H       5.484133   -1.738084   -4.193785
