18

C       0.272485   -0.437885   -1.036272
C      -0.023178    0.537622    0.082419
C       1.079025    0.978791    0.979074
N       0.518076    1.911723   -0.013401
C      -1.414591    0.537653    0.659846
N      -2.483372   -0.146237   -0.062387
C      -2.094902   -0.657152    1.266200
C      -1.492340   -1.967257    1.322738
N      -1.008215   -3.013816    1.409825
H       1.312452   -0.330053   -1.360491
H       0.126152   -1.474391   -0.721991
H      -0.384439   -0.255295   -1.891218
H       0.874989    1.237944    2.014899
H       2.064716    0.554360    0.808541
H       1.137639    1.978885   -0.817352
H      -1.652958    1.479800    1.149834
H      -3.364910    0.354920    0.001759
H      -2.751596   -0.456980    2.109229
