15

O      -0.011922   -0.008597   -0.302180
C       0.005958    1.169337   -0.107234
C      -1.013371    2.254018    0.292480
O       0.059257    3.231601    0.317800
C       1.027992    2.267379   -0.099096
C       2.454565    2.383986    0.392692
C       3.251686    1.212287   -0.176191
O       2.830171    1.542692   -1.535287
C       2.125302    2.673057   -1.054207
H      -1.772665    2.484430   -0.462918
H      -1.483505    2.123999    1.273034
H       2.710428    3.034872    1.217619
H       4.335120    1.331053   -0.075150
H       2.947400    0.202924    0.114433
H       2.078465    3.578545   -1.648503
