23

C       0.317277    1.491221    0.179700
C       0.151278   -0.016071   -0.035592
C       0.623224   -0.521364   -1.417170
C      -0.182738    0.099306   -2.570018
O       2.014347   -0.177500   -1.587049
C       2.815548   -1.337388   -1.830684
C       3.981582   -1.389734   -0.842717
C       1.847468   -2.486524   -1.724743
C       0.624813   -2.031353   -1.486804
H       1.352018    1.789786   -0.008040
H      -0.330315    2.073990   -0.482260
H       0.063282    1.762492    1.209049
H       0.725036   -0.557387    0.724992
H      -0.899378   -0.303984    0.100241
H      -0.047086    1.183309   -2.596971
H       0.153712   -0.310233   -3.526136
H      -1.251968   -0.112500   -2.460596
H       3.230054   -1.273721   -2.851903
H       3.612764   -1.487709    0.182498
H       4.635514   -2.240373   -1.063367
H       4.575056   -0.473814   -0.913962
H       2.148603   -3.521046   -1.836198
H      -0.276967   -2.618501   -1.362273
