21

O      -0.006068    1.420345   -0.157617
C       0.013869    0.008488    0.008942
C       0.637126   -0.514816    1.338979
C      -0.509844   -1.355407    1.955618
C      -1.583818   -0.386452    2.503427
C      -2.190910    0.226477    1.205869
C      -1.435548   -0.516825    0.073092
O      -2.087995   -0.524383   -1.173057
C      -1.209258   -1.906673    0.692666
H       0.894134    1.720680   -0.312020
H       0.498943   -0.457763   -0.860110
H       1.523863   -1.126979    1.147593
H       0.936806    0.318523    1.982441
H      -0.171111   -2.096726    2.681445
H      -2.340771   -0.932655    3.074571
H      -1.155118    0.367427    3.170170
H      -3.258803    0.013836    1.109647
H      -2.050879    1.306751    1.138010
H      -2.039602    0.375087   -1.516926
H      -0.572515   -2.547298    0.074809
H      -2.146097   -2.430826    0.901257
