24

C      -1.572695   -0.479433    0.701052
C      -0.339361    0.416607    0.557652
O      -0.707716    1.797426    0.593234
C       0.693922    0.086994    1.619447
C       1.678074   -1.015889    1.415255
N       2.125736    0.364309    1.520390
C       2.712355    0.996376    0.332986
C       2.581991    2.515904    0.453808
C       4.175324    0.555968    0.235594
H      -2.007922   -0.382316    1.703429
H      -2.332593   -0.190113   -0.029580
H      -1.317563   -1.532494    0.548780
H       0.088770    0.274812   -0.439264
H      -1.046250    1.986828    1.475848
H       0.307156    0.236197    2.631234
H       1.951252   -1.684480    2.227914
H       1.690296   -1.479342    0.427294
H       2.201178    0.671349   -0.590225
H       3.090271    2.865950    1.358329
H       3.038335    3.008567   -0.410742
H       1.530672    2.807559    0.505843
H       4.256878   -0.531699    0.141623
H       4.655584    1.009035   -0.637166
H       4.723830    0.860276    1.132575
