23

O      -0.096259    1.521597    0.462879
C       0.021518    0.150179    0.204957
C      -0.557888   -0.845124    1.179470
C      -1.240075   -0.581771   -0.151917
C      -2.566158    0.139617   -0.211582
C      -2.848975    0.822925   -1.566192
C      -4.384963    1.034005   -1.608845
C      -4.972468    0.124045   -0.489252
C      -3.800759   -0.760779   -0.025425
H       0.493019    1.737583    1.192782
H       0.933267   -0.132247   -0.321836
H      -0.044086   -1.786987    1.339908
H      -1.039681   -0.433944    2.061246
H      -1.126003   -1.359360   -0.904942
H      -2.574675    0.909970    0.568822
H      -2.281665    1.749565   -1.683500
H      -2.536796    0.152313   -2.376953
H      -4.646203    2.081504   -1.432141
H      -4.790580    0.775937   -2.591366
H      -5.323473    0.738022    0.347463
H      -5.831025   -0.461295   -0.830230
H      -3.707563   -1.642344   -0.674452
H      -3.916484   -1.126323    0.999467
