12

F       0.100368    0.072766    0.002360
C      -0.054832    1.384461    0.011317
N      -1.217200    1.901231    0.029782
C      -1.240139    3.287179    0.037429
C      -0.125951    4.047888    0.026394
F      -0.190397    5.371247    0.034263
C       1.210192    3.466496    0.005290
N       2.279324    4.159871   -0.005495
N       1.127020    2.053342   -0.001075
H      -2.218347    3.753766    0.053119
H       3.118862    3.580453   -0.019907
H       1.983884    1.517557   -0.015462
