21

C      -0.249703    1.216663   -0.282987
C       0.267451   -0.098117    0.303846
C       1.045945   -0.893615   -0.735529
N       1.360543   -2.304241   -0.430759
C       0.471097   -1.990782   -1.565801
C      -0.955137   -2.477994   -1.487790
C       1.139018    0.158098    1.549458
N       1.500652   -0.982156    2.208051
O       1.444167    1.273458    1.926869
H       0.580558    1.853986   -0.599186
H      -0.893388    1.025369   -1.146977
H      -0.817516    1.775875    0.463300
H      -0.577822   -0.709718    0.637767
H       1.838403   -0.313107   -1.207918
H       2.293770   -2.542346   -0.753745
H       0.914646   -2.091933   -2.555874
H      -1.354268   -2.400179   -0.474360
H      -1.599796   -1.902952   -2.161031
H      -1.012357   -3.530399   -1.785201
H       1.421372   -1.868292    1.726848
H       2.171207   -0.887386    2.954286
