15

O       0.013120    0.025677    0.072047
C      -0.014238    1.223100    0.027543
C      -1.253231    2.152179    0.004721
C      -0.553235    3.526423    0.048970
O       0.615566    3.288048   -0.753375
C       1.176116    2.212975   -0.001791
C       1.210598    2.782150    1.429954
O       1.364513    4.199463    1.471119
C       0.041863    3.670063    1.459497
H      -1.808376    2.012650   -0.926925
H      -1.919689    1.931280    0.842986
H      -1.102218    4.375824   -0.353990
H       2.099567    1.850775   -0.447091
H       1.578798    2.206452    2.271825
H      -0.578140    3.843709    2.333158
