15

C       0.048216    1.476578    0.014486
C       0.034541   -0.021813    0.013988
N       0.035396   -0.632238   -1.183245
C       0.022986   -1.945092   -1.104153
F       0.023218   -2.592858   -2.248574
N       0.010246   -2.700011   -0.018992
C       0.010539   -1.997811    1.119896
C      -0.003133   -2.754912    2.412870
N       0.022411   -0.658958    1.185951
H       0.932810    1.840323   -0.517534
H      -0.823903    1.856355   -0.526847
H       0.046283    1.857965    1.034986
H       0.876314   -2.488961    3.007556
H      -0.880370   -2.468437    3.001175
H      -0.014761   -3.828727    2.228562
