20

C      -0.060880    1.467620    0.020110
C       1.496325    1.555052   -0.086101
C       1.541201    0.039967   -0.283892
C       2.505636   -1.001914    0.228776
C       1.836329   -2.297208   -0.314688
C       0.970252   -1.780910   -1.469365
C      -0.133079   -0.800309   -1.240292
C       0.020630   -0.093368    0.081680
N       1.236290   -0.352684   -1.731242
H      -0.483620    1.932059    0.913167
H      -0.595515    1.847205   -0.853766
H       1.915252    2.149708   -0.901125
H       1.956461    1.865015    0.856745
H       3.503067   -0.862090   -0.204217
H       2.602316   -0.993639    1.318325
H       2.571169   -3.021217   -0.676076
H       1.239081   -2.797757    0.454039
H       0.887206   -2.386916   -2.366502
H      -0.999790   -0.762766   -1.897510
H      -0.356770   -0.560424    0.995222
