16

O      -0.095656    1.443922    0.003258
C      -0.008844    0.071454    0.000998
C       0.771584   -0.867709   -0.981957
O       1.637777   -1.341300    0.072729
C       0.675186   -0.877161    1.044819
C      -0.616943   -1.812857    0.993939
N      -0.466858   -2.861107   -0.034459
C      -0.519130   -1.803267   -1.062658
C      -1.253581   -0.855051   -0.062521
H       0.795495    1.810804    0.046899
H       1.302822   -0.595106   -1.895283
H       1.117233   -0.613312    2.006933
H      -1.066473   -2.103728    1.944386
H       0.438609   -3.331939    0.006409
H      -0.876291   -2.085080   -2.054146
H      -2.295792   -0.555364   -0.110693
