20

C       0.614815    1.596514    0.861203
C       0.410311    0.100829    0.679085
C      -0.570868   -0.740736    1.543633
C      -1.788963   -0.145359    0.796604
C      -0.692081   -0.524637   -0.227416
O      -0.504232   -1.798604    0.507376
N       1.387235    2.134294   -0.256604
C       0.618317    2.647121   -1.386614
C       1.316816    3.576314   -0.455858
H      -0.341351    2.131294    0.992739
H       1.198467    1.762397    1.775891
H       1.369022   -0.404742    0.544327
H      -0.481406   -1.053417    2.584920
H      -2.667525   -0.790951    0.777450
H      -2.043726    0.905885    0.944200
H      -0.747125   -0.580069   -1.314874
H       1.025046    2.439452   -2.372121
H      -0.468726    2.611012   -1.324784
H       0.694610    4.156711    0.224161
H       2.244593    4.059746   -0.748096
