14

O      -0.975649    1.279998   -0.220853
C       0.115268    0.928843    0.147258
C       1.347760    1.753307   -0.055837
O       1.189169    3.186874   -0.062807
C       1.617337    2.574249   -1.259375
C       3.125173    2.628681   -1.464184
N       3.636007    1.918999   -0.301354
C       2.697256    1.331569    0.502817
O       2.894485    0.605408    1.451479
H       0.293186   -0.037362    0.659075
H       0.928193    2.615770   -2.096980
H       3.403559    2.131491   -2.401993
H       3.479405    3.665528   -1.501781
H       4.615990    1.856106   -0.076459
