13

C       0.037055    1.380636   -0.131019
C       1.523875    1.842742    0.106053
C       2.110331    0.561516    0.620346
C       1.132963   -0.384312    0.649605
N       1.706103   -1.500089    1.113264
N       3.045720   -1.236915    1.370564
N       3.265407    0.011995    1.065623
O      -0.096855   -0.046464    0.246769
H      -0.676875    1.931116    0.484506
H      -0.262772    1.452094   -1.178210
H       1.980118    2.192950   -0.825328
H       1.569682    2.667281    0.824609
H       1.336204   -2.419417    1.285733
