18

C      -0.005984    1.446536    0.201729
C      -0.002379   -0.039464    0.056444
C      -0.035322   -0.772174   -1.060744
C       0.016034   -2.226427   -0.752418
C       1.252022   -2.689848   -0.057019
N       0.045308   -2.358158    0.722404
C       0.019127   -0.983353    1.260683
C       1.166525   -0.738916    2.237656
O       1.376503    0.315961    2.777704
H       0.864588    1.791780    0.768015
H      -0.013655    1.939127   -0.773984
H      -0.886137    1.782061    0.764914
H      -0.086660   -0.379284   -2.068990
H      -0.601702   -2.928929   -1.305322
H       1.515630   -3.743551   -0.033016
H       2.093207   -2.000111   -0.056188
H      -0.900114   -0.851446    1.854259
H       1.802394   -1.630628    2.431876
