21

C       0.269285    1.306044   -0.202545
C      -0.021555   -0.174399    0.085266
O       0.405008   -0.529893    1.401182
C      -1.486727   -0.491148   -0.005403
C      -2.091409   -1.158760   -0.988205
C      -3.584775   -1.230801   -0.797788
C      -3.784032   -0.765408    0.671393
O      -3.887292   -1.867448    1.566413
C      -2.481195   -0.020891    1.035201
H       1.345153    1.506498   -0.129475
H      -0.054373    1.576864   -1.211990
H      -0.246378    1.949353    0.516403
H       0.510554   -0.784120   -0.662663
H       1.316449   -0.237849    1.503155
H      -1.585707   -1.590431   -1.845950
H      -4.111342   -0.572365   -1.503497
H      -3.992371   -2.238612   -0.949558
H      -4.665254   -0.116306    0.771819
H      -4.656978   -2.385057    1.309401
H      -2.173523   -0.271448    2.053647
H      -2.619032    1.067841    0.996233
