19

C      -0.191217    1.449659   -0.150943
N       0.095756    0.035034    0.041912
C       1.384240   -0.572554   -0.184476
C       2.553995    0.308207    0.291485
C       1.935932    0.296626    1.731763
C       1.663579    1.550112    2.419337
N       1.445747    2.542577    2.972549
C       0.736897   -0.549558    1.188309
C       0.031371   -1.588696    2.008236
H       0.624825    2.135070    0.109021
H      -0.448728    1.605569   -1.202943
H      -1.059552    1.718029    0.456835
H       1.463391   -1.384141   -0.900378
H       3.519204   -0.199554    0.264422
H       2.655393    1.284813   -0.186513
H       2.547235   -0.324526    2.392486
H      -0.601431   -1.118824    2.770305
H      -0.609170   -2.199035    1.367316
H       0.744269   -2.242090    2.522266
