17

C       0.018523    1.522702   -0.058710
C       0.015942    0.004213   -0.013462
O       0.666659   -0.482162   -1.170850
C       0.720664   -1.887209   -1.232205
C       1.449016   -2.265882   -2.526730
C       1.563021   -3.707917   -2.695938
C       1.643187   -4.901606   -2.810097
H       1.043220    1.903732   -0.088881
H      -0.506330    1.880917   -0.948818
H      -0.478581    1.931093    0.826221
H       0.532114   -0.357754    0.891893
H      -1.016969   -0.380824    0.030700
H       1.257547   -2.301354   -0.363405
H      -0.291546   -2.323098   -1.228619
H       0.909510   -1.824262   -3.372967
H       2.443136   -1.803466   -2.516129
H       1.721474   -5.954156   -2.923505
