18

O       0.450786    0.291219    0.901952
C      -0.207597    0.307692   -0.350860
C      -1.548615   -0.367487   -0.302885
C      -2.622707   -0.566208   -1.397861
C      -3.217993   -1.254152   -0.148070
O      -4.380916   -1.979435   -0.005121
C      -1.832510   -1.770609    0.336620
N      -1.907348   -1.175848    1.714551
C      -2.608009   -0.180322    0.832893
H      -0.101268   -0.215322    1.518737
H      -0.337684    1.350383   -0.681516
H       0.419309   -0.185725   -1.111412
H      -3.125141    0.338634   -1.754924
H      -2.353607   -1.217960   -2.234212
H      -5.129333   -1.415598   -0.229983
H      -1.344226   -2.720210    0.115256
H      -2.576861   -1.686180    2.294691
H      -3.037558    0.752066    1.202473
