20

O      -0.109287    1.406408    0.401247
C      -0.055433    0.076807   -0.029994
C      -0.385833   -1.033219    0.949476
C      -1.354911   -0.650336   -0.170637
N      -2.623376   -0.026737    0.032015
C      -2.921313    0.940810    1.111079
C      -4.373122    0.395683    1.118833
O      -5.290369    1.127356    0.340570
C      -3.779232   -0.858888    0.426256
H       0.633930    1.555235    0.995115
H       0.708367   -0.121607   -0.782502
H       0.150341   -1.974646    0.893826
H      -0.637898   -0.710645    1.954238
H      -1.397536   -1.349844   -1.002575
H      -2.402459    0.735506    2.059230
H      -2.776217    1.991090    0.846872
H      -4.842815    0.247483    2.091685
H      -4.871021    1.287875   -0.513009
H      -4.352444   -1.288995   -0.402982
H      -3.522398   -1.653767    1.145589
