20

C      -0.038719    1.556516   -0.029868
C       1.492530    1.901970   -0.021204
C       2.048927    0.492158    0.035282
C       3.446810   -0.086544    0.074258
C       3.023629   -1.597540    0.121020
N       1.532561   -1.579426    0.100249
C       1.149331   -0.394941    0.963484
C      -0.001138    0.020339    0.023977
C       1.173868   -0.458025   -0.853086
H      -0.564765    1.983353    0.830014
H      -0.541015    1.922220   -0.931126
H       1.803278    2.445861   -0.919013
H       1.779482    2.507160    0.844730
H       4.039926    0.161156   -0.811859
H       4.016047    0.222581    0.956730
H       3.390394   -2.165178   -0.739358
H       3.366515   -2.103785    1.028283
H       1.164423   -0.446484    2.055833
H      -0.939743   -0.533102    0.030520
H       1.218379   -0.585193   -1.938424
