17

C      -0.000394    1.505011   -0.004747
C       1.413903    2.058366    0.010053
O       1.694077    3.111369    0.936406
C       2.287290    1.818376    1.167996
C       1.833134    1.074346    2.376493
C       1.087306   -0.031353    2.377289
C       0.566763   -0.732336    1.169829
O      -0.854453   -0.666876    0.939115
C       0.016321   -0.013577    0.011542
H      -0.518036    1.854818    0.890165
H      -0.552122    1.876541   -0.874202
H       1.892791    2.188972   -0.961417
H       3.367170    1.814785    1.005314
H       2.171851    1.483899    3.326486
H       0.835081   -0.497878    3.327913
H       0.974492   -1.732408    1.007862
H       0.073964   -0.507479   -0.959480
