20

C       0.043268    1.560873    0.094524
C      -0.010361    0.033670   -0.002275
C      -1.439391   -0.535990   -0.070893
C      -2.206162   -0.133521   -1.335374
N      -1.412485   -1.996745    0.071486
C      -0.885074   -2.932650   -0.774597
N      -1.041010   -4.142070   -0.296512
N      -1.694245   -4.019379    0.912866
C      -1.901261   -2.742053    1.107162
H       1.075561    1.899099    0.220363
H      -0.353139    2.045712   -0.802435
H      -0.530954    1.924804    0.953970
H       0.551869   -0.304732   -0.881565
H       0.485397   -0.407258    0.869605
H      -1.993984   -0.173801    0.802296
H      -1.672092   -0.447640   -2.237808
H      -3.197587   -0.593516   -1.347407
H      -2.331843    0.950981   -1.378610
H      -0.408064   -2.686750   -1.710036
H      -2.392822   -2.302235    1.961634
