18

C       0.192984    1.502352    0.047294
O       1.018964    0.430984   -0.407589
C      -0.297074    0.115595    0.052974
C      -0.408227   -0.684971    1.313566
C       0.685316   -0.547850    2.397023
O       0.819167   -1.984821    2.510371
C      -0.160979   -2.214985    1.487425
C      -1.592968   -2.319599    2.052286
N      -1.799384   -0.867790    1.779154
H       0.506778    1.968866    0.980502
H      -0.150611    2.190716   -0.722871
H      -0.996493   -0.180311   -0.728810
H       1.617342   -0.093180    2.042669
H       0.371740   -0.077057    3.337878
H       0.178174   -2.911981    0.718795
H      -2.291309   -2.948808    1.488767
H      -1.601863   -2.622210    3.104762
H      -2.072284   -0.298796    2.573925
