22

C      -0.646351    1.415525   -0.133022
C       0.020626    0.048868    0.008066
C       0.714020   -0.465024   -1.277522
C       1.744634   -1.503667   -0.786976
C       3.267001   -1.182625   -0.911053
C       3.414692   -1.304053    0.633091
C       1.867225   -1.342341    0.766010
C       1.142041   -0.018772    1.065039
H       0.088745    2.181562   -0.407837
H      -1.420205    1.405336   -0.908268
H      -1.119845    1.729582    0.803502
H      -0.747270   -0.685829    0.291388
H      -0.004604   -0.875467   -1.993835
H       1.218684    0.370239   -1.780740
H       1.505058   -2.517492   -1.116078
H       3.862685   -1.878805   -1.506715
H       3.454106   -0.172325   -1.287350
H       3.886111   -2.243014    0.935566
H       3.927237   -0.486156    1.147948
H       1.465457   -2.157152    1.374726
H       1.823411    0.831685    0.921202
H       0.764619    0.045798    2.090554
