19

C       0.097413    1.475726    0.241412
C       0.079036    0.022600    0.161201
C       0.031974   -1.180722    0.101842
C       0.049258   -2.623443    0.011766
C      -0.794814   -3.426695    0.915721
O      -1.155340   -3.257881   -0.454696
C       1.342176   -3.220019   -0.552265
C       1.522890   -2.879861   -2.030775
O       2.452058   -2.820646    0.235771
H       0.716221    1.912090   -0.549904
H      -0.913823    1.882890    0.135007
H       0.493779    1.816722    1.204009
H      -0.461810   -4.424521    1.198410
H      -1.438562   -2.921579    1.633074
H       1.275459   -4.306704   -0.435210
H       1.576244   -1.795056   -2.173955
H       2.448441   -3.325737   -2.403792
H       0.681613   -3.260420   -2.617447
H       2.483230   -1.856134    0.213238
