16

C       0.107135    1.518110    0.008598
C       1.370568    0.674034    0.015881
N       1.934535    0.328817    1.295915
C       1.078875   -0.394414    1.916869
N      -0.124315   -0.635918    1.241385
C      -0.715355   -1.881760    0.977578
N      -1.114207   -2.085412   -0.213438
C      -0.777381   -0.886285   -1.010657
C      -0.027673    0.033905   -0.049730
H      -0.176475    2.043932    0.915503
H      -0.089983    2.053769   -0.914765
H       2.066961    0.757719   -0.810996
H       1.229036   -0.797729    2.911879
H      -0.819940   -2.599797    1.784363
H      -0.192649   -1.182644   -1.888121
H      -1.701726   -0.424349   -1.375273
