23

C      -0.206400    1.317199   -0.695266
C       0.178282   -0.145017   -0.530295
C       1.545462   -0.775136   -0.589021
C       2.647000    0.003341    0.142725
C       3.209439    1.314004   -0.396422
C       1.758223   -0.038869    1.445853
O       1.398926    1.150247    2.119747
C       0.690148   -0.852730    0.702279
C      -0.030670   -2.018468    1.324150
H      -0.219509    1.594082   -1.755488
H      -1.214113    1.494267   -0.300545
H       0.474601    2.009907   -0.198702
H      -0.543443   -0.786692   -1.037114
H       1.744443   -1.582482   -1.286512
H       3.492482   -0.673796    0.310148
H       2.443652    2.059050   -0.616947
H       3.899977    1.756789    0.329091
H       3.766889    1.135866   -1.322842
H       2.250909   -0.655703    2.203864
H       0.655711    1.547356    1.659507
H      -0.766531   -1.681897    2.064871
H      -0.567551   -2.604593    0.570886
H       0.666049   -2.691156    1.837820
