19

C       0.005783    1.466881   -0.037894
C       0.058123   -0.030987   -0.095523
C       0.630421   -0.969219   -1.184106
C       0.082433   -1.945910   -0.117816
O       0.002471   -3.319036   -0.142986
C       0.469223   -0.990819    1.066293
O      -0.851641   -1.013201    1.674265
C      -1.123664   -1.021288    0.234089
C      -2.539403   -1.053235   -0.241569
H       1.009937    1.903300   -0.069942
H      -0.562847    1.879374   -0.878447
H      -0.476193    1.787116    0.891790
H       0.121923   -0.965964   -2.152928
H       1.716591   -0.947178   -1.321483
H       0.891314   -3.682336   -0.220785
H       1.347387   -0.970102    1.712386
H      -3.091964   -0.185129    0.130876
H      -2.574399   -1.044961   -1.335604
H      -3.038237   -1.960657    0.111738
