19

C       0.006735    1.279173   -0.305154
O      -0.083006   -0.031411    0.229119
C      -1.360450   -0.569405    0.181304
C      -2.473221   -0.025066    1.084880
C      -3.406855   -1.248943    1.305322
C      -2.981007   -2.209363    0.198124
O      -3.188304   -1.531923   -1.092849
C      -1.795423   -1.223723   -1.126554
C      -1.450568   -2.074427    0.059013
H       1.061032    1.562724   -0.273267
H      -0.347138    1.317508   -1.344634
H      -0.572722    2.000992    0.286646
H      -2.039205    0.338240    2.021072
H      -3.011426    0.805568    0.619484
H      -3.232540   -1.711345    2.283711
H      -4.467763   -0.995256    1.232762
H      -3.435853   -3.201228    0.203220
H      -1.310707   -1.077140   -2.084970
H      -0.661855   -2.788174    0.249595
