21

C      -0.147902    1.615853    0.125203
C       0.254087    0.154808   -0.098237
C       0.733044   -0.515489    1.173740
O      -0.351720   -0.678647    2.158211
C      -0.271129   -2.054075    2.099612
N      -0.998393   -2.939620    2.612034
C       0.943358   -2.057274    1.170937
N       0.924759   -2.761708   -0.085891
C       1.224937   -4.190371    0.038415
H       0.700631    2.209676    0.482251
H      -0.507759    2.070532   -0.802155
H      -0.944516    1.687414    0.871355
H      -0.597910   -0.404302   -0.503735
H       1.058807    0.080372   -0.839062
H       1.549792    0.052215    1.631759
H      -1.761717   -2.529531    3.154218
H       1.851602   -2.342951    1.711155
H       0.018908   -2.652154   -0.529113
H       1.171127   -4.652616   -0.951326
H       2.249600   -4.310902    0.407517
H       0.550142   -4.730017    0.718149
