17

C       0.041495    1.592012    0.188123
C      -0.081015    0.070551   -0.006622
C       0.619076   -0.439347   -1.229066
C       0.111656   -0.885865   -2.419109
N      -1.174815   -1.076091   -2.869584
O       1.085280   -1.260548   -3.262240
N       2.337138   -1.066212   -2.625591
C       2.016720   -0.586290   -1.448916
O       2.956224   -0.271576   -0.539326
H       1.092583    1.885062    0.264096
H      -0.395550    2.135421   -0.655989
H      -0.468592    1.912876    1.102115
H       0.324554   -0.434255    0.878618
H      -1.139556   -0.214204   -0.050747
H      -1.852277   -0.432927   -2.487506
H      -1.242899   -1.154053   -3.874908
H       3.817169   -0.476306   -0.928220
