20

C      -0.192718    1.447278    0.115829
C      -0.067585   -0.051059   -0.166403
C       0.901817   -0.434029   -1.316028
C       0.996468   -1.992914   -1.462095
C       0.230459   -2.288019   -2.772645
O      -0.516809   -1.113784   -3.060912
C       0.318871   -0.034785   -2.707095
C       2.217951    0.167028   -1.099204
N       3.254956    0.650984   -0.932545
H       0.772904    1.880850    0.392436
H      -0.573609    2.000153   -0.748611
H      -0.887842    1.617579    0.943039
H       0.263872   -0.565378    0.742565
H      -1.043121   -0.474204   -0.431875
H       2.031699   -2.333898   -1.511573
H       0.527857   -2.472495   -0.600037
H       0.933553   -2.501423   -3.592034
H      -0.470866   -3.121306   -2.692427
H      -0.283743    0.874293   -2.679232
H       1.133315    0.099187   -3.435622
