17

O      -0.020073    0.547166   -1.100808
C      -0.019435    1.376436   -0.221634
C      -1.375302    1.852960    0.327680
O      -1.378622    2.791104    1.378457
C      -0.797001    4.005254    1.024244
C      -0.032751    4.694525    2.117273
C       0.720137    4.025735    1.003825
O       1.343636    2.827854    1.341820
C       1.337366    1.889581    0.291171
H      -1.942656    2.218654   -0.543723
H      -1.897079    0.964175    0.696698
H      -1.356897    4.595507    0.298080
H      -0.046769    5.777026    2.161492
H      -0.012986    4.182607    3.072398
H       1.244156    4.630621    0.263073
H       1.892683    1.015337    0.645692
H       1.870990    2.270140   -0.595049
