16

N      -0.039005    1.356521    0.006264
C       0.051064   -0.023325    0.039038
O       1.091148   -0.620618    0.219227
N      -1.164333   -0.690373   -0.110519
C      -2.464386   -0.204043    0.037646
N      -3.384807   -1.082323    0.164193
C      -2.747617   -2.376137    0.078986
C      -2.060073   -2.726841   -1.223765
C      -1.249325   -2.134055   -0.104561
H       0.867734    1.796729   -0.038174
H      -0.736060    1.781967   -0.584883
H      -2.646989    0.863379    0.054371
H      -3.173497   -3.161538    0.691254
H      -1.905119   -3.781916   -1.418896
H      -2.274225   -2.120589   -2.097719
H      -0.431965   -2.651482    0.376119
