18

C      -0.053694    1.536169    0.016074
C      -0.042505    0.006128    0.048734
O       0.551231   -0.493613    1.239949
C      -1.428416   -0.573167   -0.079284
C      -2.616817   -0.263491   -1.028334
C      -3.113734   -1.142182    0.143177
C      -1.879641   -2.055933   -0.014373
O      -2.339142   -0.290622    1.079087
H       0.953902    1.914426    0.204548
H      -0.392249    1.909751   -0.955866
H      -0.726828    1.926917    0.785527
H       0.572039   -0.378463   -0.774894
H      -0.107972   -0.384990    1.937429
H      -2.968968    0.768334   -1.016065
H      -2.599325   -0.700689   -2.029673
H      -4.133296   -1.394609    0.432494
H      -1.794319   -2.655148   -0.924369
H      -1.575108   -2.593072    0.883361
