18

C      -0.018047    1.556418   -0.007158
C      -0.065235    0.018333   -0.000368
C       0.654711   -0.530898   -1.229177
O       0.450726   -1.938615   -1.420264
C       1.239911   -2.845897   -0.811465
O       1.464141   -3.916870   -1.314953
N       1.773582   -2.499979    0.424057
C       1.328745   -1.592127    1.394122
C       0.528968   -0.531520    1.266461
H       1.014973    1.919725    0.022471
H      -0.499215    1.963848   -0.901981
H      -0.537297    1.961102    0.866507
H      -1.118962   -0.287081   -0.079612
H       0.256590   -0.075037   -2.138826
H       1.727938   -0.313942   -1.176923
H       2.352137   -3.251116    0.767418
H       1.720581   -1.842051    2.374770
H       0.307201    0.009779    2.181299
