16

O      -0.773642    0.986044    0.611932
C       0.050191    1.076791   -0.265304
C       1.260787    1.956833   -0.197812
C       1.223494    3.361702   -0.876269
C       0.156884    4.215169   -0.184157
C       0.410172    3.792119    1.276156
C       1.206331    4.894378    0.647353
N       2.232894    3.871857    0.170230
C       1.557039    2.798165    1.052970
H      -0.065201    0.506990   -1.216399
H       2.153962    1.426271   -0.547339
H       1.448669    3.502640   -1.932857
H      -0.801706    4.572558   -0.534289
H      -0.360045    3.819536    2.033440
H       1.409118    5.926045    0.903432
H       2.108905    2.405290    1.905631
