18

C       0.031382    1.448408   -0.086152
C       0.008699   -0.042189   -0.028735
O       0.640748   -0.829856   -1.087682
C       0.122387   -1.843725   -0.179462
C       0.419723   -1.026189    1.112608
N      -0.981100   -1.079394    1.650991
C      -1.183123   -1.048968    0.159274
C      -2.527932   -1.079665   -0.502354
O      -3.247852   -2.269612   -0.202563
H       1.061701    1.816805   -0.086896
H      -0.465451    1.811947   -0.990784
H      -0.485911    1.853803    0.788472
H       0.276935   -2.896414   -0.417412
H       1.310355   -1.016106    1.741819
H      -1.172704   -2.020542    2.005191
H      -3.101107   -0.182904   -0.223686
H      -2.386368   -1.063097   -1.588167
H      -3.550074   -2.201793    0.708692
