22

C       0.027026    1.632757   -0.095157
C       0.013180    0.108784    0.056829
C      -1.400539   -0.508317    0.054241
C      -2.058260   -0.535772   -1.370785
C      -1.617189   -2.013184   -1.520627
C      -1.431220   -2.090785    0.017488
C      -0.284617   -2.895859    0.606475
C      -2.215023    0.077101    1.113921
N      -2.869379    0.522916    1.957751
H       1.055189    2.005802   -0.106020
H      -0.450968    1.950403   -1.027435
H      -0.499663    2.116824    0.732391
H       0.584001   -0.348618   -0.759067
H       0.519271   -0.170924    0.987440
H      -3.143133   -0.427434   -1.318053
H      -1.666982    0.188423   -2.088036
H      -2.332422   -2.705278   -1.969148
H      -0.665977   -2.108614   -2.052700
H      -2.372070   -2.412516    0.474595
H       0.679989   -2.616425    0.172409
H      -0.219518   -2.766322    1.692037
H      -0.437900   -3.962517    0.409929
