15

C      -0.014369    1.542816   -0.001025
C      -0.007505    0.002723   -0.018674
N       0.799331   -0.496113   -1.162931
C       1.757809   -1.164965   -0.653478
N       1.786778   -1.246193    0.733886
C       0.718680   -0.529606    1.256620
O       0.458895   -0.353506    2.416772
C      -1.361214   -0.539136   -0.080556
C      -2.477025   -0.981491   -0.115298
H       1.011499    1.921074    0.011776
H      -0.517964    1.916502   -0.894104
H      -0.537234    1.893850    0.891306
H       2.532972   -1.655299   -1.233784
H       2.477888   -1.715680    1.296706
H      -3.464169   -1.372059   -0.148758
