23

C      -0.036682    1.477950   -0.092358
C       0.162314   -0.019830   -0.025673
C       1.558001   -0.610844    0.095979
C       0.578606   -0.697561    1.248296
O       0.785635    0.169205    2.335064
C      -0.018450   -2.039536    1.633142
C       0.885767   -2.851672    2.541257
C       0.888329   -2.608647    4.036580
C       0.309064   -3.882803    3.474048
H       0.634668    1.990904    0.599469
H       0.154035    1.852656   -1.103967
H      -1.062286    1.752011    0.178350
H      -0.529348   -0.592827   -0.639368
H       1.801884   -1.507438   -0.465178
H       2.376913    0.092161    0.209408
H       1.431920   -0.249334    2.913977
H      -0.978768   -1.866957    2.136940
H      -0.235285   -2.610743    0.721854
H       1.849873   -3.098871    2.102939
H       1.828820   -2.667251    4.574288
H       0.196035   -1.870194    4.427471
H      -0.769791   -3.998644    3.493876
H       0.856702   -4.806306    3.625320
