14

O       0.236794    1.390002    0.308984
C       0.097996    0.054208    0.085864
C      -1.144635   -0.917261   -0.018878
C      -0.431393   -1.776949   -1.068713
C       0.681689   -0.696896   -1.073207
O       1.482155   -0.341369   -1.892274
C      -0.309177   -0.840521    1.235051
C       0.485946   -1.946734    1.713561
N       1.113873   -2.845772    2.080237
H       0.506875    1.797364   -0.524974
H      -2.193635   -0.655050   -0.012871
H      -0.145779   -2.784599   -0.758430
H      -0.932249   -1.815481   -2.038652
H      -0.759492   -0.250363    2.029540
