14

C       0.081991    1.553085    0.135477
C      -0.076357    0.030905   -0.090054
C      -1.491792   -0.353798   -0.122831
N      -2.608423   -0.646859   -0.164669
C       0.610648   -0.430369   -1.345513
C       0.148400   -0.991493   -2.492932
O       1.175017   -1.205620   -3.310340
N       2.339038   -0.748741   -2.621843
N       1.975182   -0.312379   -1.500889
H       1.144948    1.801624    0.156108
H      -0.395370    2.112981   -0.672026
H      -0.372648    1.846356    1.084281
H       0.383011   -0.490276    0.759718
H      -0.833446   -1.278486   -2.831504
