17

O       0.135942    1.291846    0.007061
C      -0.043130   -0.099922    0.002188
C      -1.533319   -0.400551    0.014062
O      -2.421937    0.403969    0.027037
O      -1.712801   -1.740783    0.009157
C      -3.079034   -2.185176    0.020206
C      -3.043043   -3.714532    0.010739
C      -4.384178   -4.283543    0.020878
C      -5.501240   -4.725581    0.029552
H       1.081035    1.468295   -0.002220
H       0.385688   -0.587546   -0.887658
H       0.401313   -0.595661    0.879843
H      -3.584331   -1.802738    0.911264
H      -3.602072   -1.792163   -0.855874
H      -2.493980   -4.054054   -0.875693
H      -2.476230   -4.064541    0.881790
H      -6.484008   -5.127606    0.037272
