19

O       0.135006    1.407799    0.133658
C       0.044978   -0.006808    0.041793
C      -1.412991   -0.494054    0.045978
C      -2.122221   -0.078834   -1.252208
C      -1.283126   -0.477250   -2.466845
O       0.046988    0.031878   -2.375228
C       0.734550   -0.478342   -1.255980
C       2.177588   -0.004724   -1.286720
O       2.657948    0.700110   -2.129875
H       0.028168    1.755248   -0.761124
H       0.577308   -0.407793    0.912098
H      -1.420614   -1.587719    0.145117
H      -1.924416   -0.081816    0.920694
H      -3.114280   -0.537727   -1.319797
H      -2.270903    1.007038   -1.259029
H      -1.247916   -1.575423   -2.564003
H      -1.694514   -0.069942   -3.394003
H       0.753626   -1.585258   -1.270514
H       2.770684   -0.382899   -0.421976
