18

O      -0.053780    1.395868    0.047783
C       0.024588   -0.010779    0.010464
C      -1.405906   -0.606448   -0.082963
C      -1.301937   -0.418744   -1.627849
C       0.225554   -0.609969   -1.421008
N       0.526639   -2.028265   -1.282251
C      -0.219836   -2.841546   -0.471213
O      -0.008257   -4.030528   -0.340892
C      -1.351731   -2.100777    0.260932
H       0.834222    1.750582   -0.064303
H       0.688621   -0.410338    0.789987
H      -2.191729   -0.077646    0.459782
H      -1.808262   -1.139025   -2.274466
H      -1.543194    0.602151   -1.922665
H       0.937763   -0.139622   -2.101268
H       1.282301   -2.458152   -1.792365
H      -1.202112   -2.260593    1.334459
H      -2.289355   -2.602819   -0.000452
