17

N       0.277854    0.970308    0.606191
C       0.093331   -0.161686    0.102232
O       0.943446   -0.968205   -0.631241
C      -0.061966   -2.037305   -0.735261
C       0.144541   -3.232104    0.159245
C       0.670535   -2.951082    1.557258
C      -0.804849   -3.043106    1.345863
N      -1.554588   -1.803352    1.210036
C      -1.090265   -1.124843    0.012626
H       1.228338    1.303789    0.433755
H      -0.229163   -2.289857   -1.782427
H       0.323243   -4.199900   -0.292176
H       1.152493   -3.778493    2.065988
H       1.114947   -1.983282    1.758809
H      -1.355947   -3.866667    1.785081
H      -2.541350   -2.011459    1.129894
H      -1.916337   -0.707284   -0.565794
