13

N      -0.058296    1.341039   -0.008179
C       0.046931   -0.012206    0.014938
O       1.113821   -0.617363    0.005642
C      -1.208226   -0.762797    0.044057
C      -1.391156   -2.120551    0.065086
N      -0.479292   -3.125585    0.164832
N      -2.752916   -2.333907    0.029202
N      -3.368707   -1.227885   -0.005884
O      -2.432470   -0.186867    0.009118
H       0.785971    1.887532   -0.035141
H      -0.951832    1.802013   -0.000899
H       0.470634   -2.831909   -0.020562
H      -0.759137   -4.021808   -0.201279
