13

C      -0.140693   -1.200521    0.016804
C      -0.040969   -0.003251    0.022616
C       0.034558    1.428757   -0.000252
O       0.540357    2.101100    1.151380
C       1.349963    2.162081   -0.038708
C       2.588867    1.426110   -0.007306
C       3.631230    0.830428   -0.000468
C       1.396251    3.445204   -0.698998
C       1.431303    4.507545   -1.258164
H      -0.218163   -2.260044    0.017934
H      -0.799572    1.938072   -0.481627
H       4.551033    0.299169    0.013387
H       1.467614    5.449981   -1.747198
