14

C      -0.043937    1.411870   -0.013435
N      -0.009299   -0.030858    0.022101
N       0.036384   -0.747231   -1.133727
C       0.051215   -2.013133   -0.735552
C       0.038072   -2.135410    0.668935
C       0.004667   -0.827877    1.122407
N      -0.095660   -0.280085    2.407215
H       0.951734    1.850905    0.128698
H      -0.421165    1.711445   -0.991042
H      -0.710953    1.782268    0.769888
H       0.075769   -2.802307   -1.473357
H       0.055267   -3.031217    1.268425
H      -0.088589   -1.001960    3.115527
H       0.635564    0.390507    2.616754
