16

O       0.250826   -0.165846    0.230218
C       0.123997    0.963358   -0.160844
C       1.208996    2.028409   -0.070820
N       1.195558    2.933213   -1.188970
C       1.637100    2.598953   -2.525738
C       1.532912    3.917040   -3.245811
C       1.109531    4.867152   -2.411315
C       0.896623    4.282185   -1.057398
O       0.545554    4.825737   -0.030324
H      -0.823608    1.328631   -0.620366
H       1.001235    2.642240    0.817093
H       2.180503    1.538236    0.064296
H       2.667975    2.212831   -2.531326
H       1.006271    1.828686   -2.993667
H       1.777898    4.020848   -4.294463
H       0.935155    5.913607   -2.614718
