16

O       0.002561    0.017324    0.146509
C       0.005174    1.214303    0.006354
C      -1.247902    2.094152   -0.186814
N      -0.807899    3.394701   -0.717622
C       0.649166    3.467035   -0.558781
C       1.137113    3.336869    0.848726
C       1.193167    2.112352   -0.059243
C       1.353884    4.262927   -1.516213
C       1.921769    4.929530   -2.340200
H      -1.952602    1.596988   -0.856962
H      -1.753383    2.206570    0.781515
H      -1.009544    3.440680   -1.710059
H       2.094137    3.784527    1.085768
H       0.404002    3.370208    1.647847
H       2.153076    1.703640   -0.344781
H       2.431765    5.520657   -3.060221
