19

O       0.089687    1.321687   -0.314883
C       0.010039   -0.077155   -0.048068
C       0.838988   -0.481388    1.175753
C       0.540082    0.262428    2.449635
C      -0.650464    0.710079    2.877846
C      -1.967540    0.581794    2.256740
C      -2.317655    0.068064    1.068288
C      -1.467317   -0.508724   -0.038248
O      -2.040556   -0.157524   -1.294000
H      -0.136328    1.779706    0.504558
H       0.450746   -0.552538   -0.930534
H       0.730476   -1.563303    1.342092
H       1.893641   -0.324993    0.924098
H       1.399092    0.448150    3.089731
H      -0.660754    1.225795    3.835564
H      -2.780699    0.958991    2.873418
H      -3.373070    0.071137    0.806103
H      -1.514139   -1.605463    0.008202
H      -1.747452    0.750262   -1.454997
