16

C      -0.143661    1.515760   -0.095847
N       0.090867    0.087646    0.085626
C       1.358605   -0.554968   -0.138981
C       2.557218    0.293773    0.322151
C       1.943198    0.283436    1.766480
O       1.636304    1.496046    2.419406
C       0.729253   -0.493474    1.242008
H       0.655471    2.170554    0.265828
H      -0.309011    1.702900   -1.162001
H      -1.059156    1.781682    0.441061
H       1.405742   -1.392215   -0.827010
H       3.511640   -0.234728    0.268144
H       2.664568    1.272765   -0.152921
H       2.542251   -0.369889    2.416217
H       2.457494    1.883168    2.739327
H       0.189652   -1.249323    1.803276
