17

O      -0.226172    1.361284    0.131615
C      -0.015783   -0.018157    0.020281
C      -0.278293   -0.790496    1.298615
O      -0.580095   -0.064711    2.437933
C      -1.275948   -0.864985    0.141905
O      -2.460923   -0.096936    0.240350
C      -3.529113   -0.794104   -0.418547
C      -2.894544   -2.040357   -0.971937
C      -1.604326   -2.065882   -0.644357
H      -1.158360    1.509406   -0.089061
H       0.787362   -0.293135   -0.659028
H       0.306665   -1.684636    1.500655
H      -0.531494    0.866687    2.173361
H      -4.325098   -1.008721    0.309925
H      -3.960569   -0.148089   -1.197359
H      -3.440197   -2.782823   -1.538786
H      -0.880926   -2.832539   -0.887423
