19

C       0.182327    1.298075    0.387275
O      -0.160306   -0.026437   -0.008105
C       0.507535   -0.463994   -1.108711
C       0.845332   -1.871752   -1.535413
C       0.211696   -1.685573   -2.909482
C       0.455598   -0.164305   -2.695930
C      -0.243590    0.907826   -3.471524
O       1.911947   -0.065348   -2.711937
C       1.927944   -0.748919   -1.466037
H       1.258841    1.385459    0.580528
H      -0.100606    2.031672   -0.378241
H      -0.372395    1.506059    1.304372
H       0.906876   -2.756989   -0.915815
H       0.701756   -2.123710   -3.784620
H      -0.853339   -1.931774   -2.897110
H      -1.327981    0.816891   -3.359070
H       0.063145    1.901831   -3.134169
H      -0.001796    0.820539   -4.537029
H       2.849852   -0.821880   -0.905284
