21

C       0.012849    1.534379    0.093752
C       0.010632    0.027409    0.015317
C      -0.848372   -0.805929    0.940055
C       0.654072   -0.865224    1.055148
C       1.327257   -1.986887    0.288020
O       0.715483   -1.979457   -1.000396
C       0.343596   -0.633190   -1.318959
C      -0.772290   -0.721049   -2.352161
O      -0.356856   -1.432949   -3.501915
H       0.956022    1.950433   -0.279181
H      -0.799096    1.969556   -0.500287
H      -0.118287    1.875088    1.125215
H      -1.386917   -0.275579    1.717941
H      -1.365471   -1.673473    0.543066
H       1.150127   -0.451528    1.925871
H       2.411175   -1.803624    0.212388
H       1.174922   -2.984517    0.713534
H       1.201927   -0.107551   -1.772988
H      -1.658465   -1.181540   -1.888531
H      -1.051023    0.284954   -2.683974
H       0.027565   -2.255691   -3.177321
