23

C       0.203338    0.605843   -2.364184
C       0.183218   -0.428237   -1.258279
C       1.309193   -0.581858   -0.248496
C       2.559849    0.269585   -0.272620
C      -0.031997   -0.037304    0.177371
C      -0.293553    1.355927    0.772316
C      -0.845933    0.637018    2.037946
O      -1.971505    1.152454    2.700663
C      -0.961816   -0.678586    1.215925
H       0.625855    1.557777   -2.031424
H       0.792677    0.262982   -3.222095
H      -0.811976    0.809968   -2.723075
H      -0.288754   -1.364739   -1.551165
H       1.494751   -1.609266    0.060907
H       2.354711    1.300954   -0.571194
H       3.029303    0.303637    0.717239
H       3.298640   -0.134487   -0.973863
H       0.548377    2.039262    0.909562
H      -1.092282    1.889911    0.241577
H      -0.069788    0.550589    2.803443
H      -2.682609    1.234473    2.056175
H      -1.981355   -0.813784    0.831501
H      -0.643424   -1.608828    1.695077
