23

C      -0.030059    1.679116    0.139710
C       0.038823    0.147724    0.155964
C      -1.322455   -0.528448   -0.020102
C      -1.856701   -0.660918   -1.501909
C      -1.385364    0.201539   -2.664735
C      -1.381772   -2.118601   -1.445964
O      -1.028184   -2.900509   -2.283967
C      -1.301399   -2.102539    0.084432
C      -0.178483   -2.869326    0.767940
H       0.958759    2.118101    0.305230
H      -0.407966    2.060978   -0.812603
H      -0.693667    2.047353    0.930106
H       0.740292   -0.201279   -0.613344
H       0.465944   -0.174180    1.113681
H      -2.042352   -0.061846    0.658521
H      -2.954316   -0.668540   -1.470983
H      -0.295949    0.293140   -2.689728
H      -1.693263   -0.261532   -3.607431
H      -1.814041    1.207279   -2.626662
H      -2.271378   -2.437167    0.475307
H       0.803482   -2.575557    0.387282
H      -0.185974   -2.711260    1.851188
H      -0.294070   -3.941358    0.582584
