20

O       0.143271    1.282599    0.328340
C       0.064937   -0.007050   -0.261398
C      -1.303086   -0.619680   -0.081207
C      -1.622041   -2.059795   -0.039961
C      -0.527396   -2.905382    0.616218
C      -0.684652   -1.968661    1.816413
C      -0.749106   -2.352676    3.256656
C       0.322845   -1.397941    2.767869
N      -1.799280   -1.191554    1.205707
H      -0.150707    1.195658    1.241014
H       0.248839    0.142321   -1.331333
H       0.856246   -0.665745    0.116836
H      -2.088395   -0.002115   -0.514107
H      -2.480895   -2.469948   -0.561716
H      -0.856140   -3.924260    0.832879
H       0.439977   -2.946393    0.106996
H      -1.565168   -1.936305    3.837311
H      -0.455207   -3.359516    3.535134
H       1.347184   -1.751998    2.708026
H       0.228479   -0.353745    3.049512
