19

C      -0.148531    1.361869   -0.018601
O      -0.065551   -0.046460   -0.024592
C       0.590904   -0.584838   -1.089199
C       1.185832    0.047749   -2.161445
N       1.710232   -0.949126   -2.957549
C       1.457247   -2.178818   -2.409468
N       1.922564   -3.331124   -3.090186
C       0.754656   -1.993795   -1.232539
C       0.258748   -3.042810   -0.288723
H       0.850025    1.821591    0.001917
H      -0.686717    1.734888   -0.901830
H      -0.694788    1.645363    0.883061
H       1.280170    1.087183   -2.421625
H       2.210349   -0.825636   -3.819887
H       2.564856   -3.870928   -2.518928
H       1.159730   -3.950335   -3.344980
H       0.524847   -4.043174   -0.645118
H       0.682501   -2.922609    0.715294
H      -0.831174   -3.008072   -0.175001
