14

N       0.582123    0.340154   -0.806427
C      -0.037815    0.023386    0.358363
O       0.274653    0.489698    1.436425
C      -1.194862   -0.960198    0.286986
C      -1.881530   -1.530941   -0.899399
O      -0.951344   -1.700580   -2.008186
C      -0.241765   -2.660638   -1.262003
O       0.648675   -3.339445   -1.643702
C      -1.084915   -2.472869   -0.032134
H       1.367644    0.968191   -0.758581
H       0.300411   -0.056019   -1.688216
H      -1.849897   -0.810419    1.140938
H      -2.932807   -1.496187   -1.147468
H      -1.370166   -3.233575    0.678798
