12

O      -0.097364    1.416427   -0.007815
C      -0.031541    0.012625   -0.008668
C       0.663155   -0.551341   -1.292850
C       0.052475   -0.038415   -2.513957
N      -0.413443    0.363887   -3.490368
C       0.721279   -0.489789    1.167985
N       1.369591   -0.843691    2.055332
C      -1.422325   -0.482038    0.064961
N      -2.493587   -0.907616    0.105448
H       0.796258    1.773502    0.074198
H       1.719290   -0.262643   -1.261065
H       0.623127   -1.644972   -1.280840
