18

O      -0.024515    1.428340    0.097109
C       0.011799    0.029331    0.046453
C       0.630407   -0.600063    1.339365
C      -0.035591   -1.980991    1.521094
C      -1.394050   -1.821666    0.856763
N      -2.075371   -0.582309    1.278909
C      -1.371737   -0.624345   -0.017935
C       0.819785   -0.409457   -1.161750
O       1.336844    0.382920   -1.912688
H       0.496153    1.734539   -0.662191
H       1.721904   -0.649381    1.299064
H       0.353996    0.074230    2.150693
H       0.528854   -2.769961    1.010192
H      -0.113327   -2.264468    2.575396
H      -1.989277   -2.695690    0.612494
H      -3.074395   -0.665959    1.108849
H      -1.949339   -0.552865   -0.934157
H       0.924868   -1.503112   -1.313395
