20

C      -0.461051    1.575054   -0.138776
C      -0.020985    0.107846   -0.061698
C       0.877809   -0.080476    1.187496
O       1.093517   -1.441841    1.543871
C      -1.254592   -0.831378    0.042454
O      -1.773810   -0.933159    1.366981
C       0.730540   -0.266758   -1.361800
N       1.459589   -1.413679   -1.279815
O       0.643178    0.391530   -2.382461
H       0.394857    2.251620   -0.050958
H      -0.939853    1.776778   -1.097785
H      -1.157570    1.819033    0.672432
H       1.865368    0.353253    1.002801
H       0.432068    0.462857    2.029891
H       0.247907   -1.757357    1.888943
H      -2.027094   -0.501644   -0.664595
H      -0.973756   -1.850882   -0.229996
H      -2.161296   -0.086628    1.611281
H       1.586165   -1.879818   -0.391697
H       2.004507   -1.682616   -2.082552
