15

C      -0.139429    1.464869    0.000992
C       0.031989   -0.021021    0.029037
C      -0.052302   -0.944503   -1.205246
O       0.682783   -2.137830   -0.933974
C       0.080172   -2.149335    0.384835
C       0.676096   -0.892557    1.066865
O       1.192382   -0.681381    2.127133
C      -1.051087   -1.141439   -0.119262
O      -2.385969   -0.980668    0.077829
H       0.779864    1.959760   -0.327758
H      -0.943733    1.756936   -0.681580
H      -0.388145    1.841810    0.997401
H      -0.104022   -0.563145   -2.217244
H       0.004373   -3.127140    0.852512
H      -2.857440   -1.681914   -0.388795
