18

C      -0.729018    1.803240    0.095873
N      -1.131120    0.450270   -0.230876
C      -0.284862   -0.470717   -0.046638
N      -0.607978   -1.791025   -0.338353
C       0.260656   -2.846422   -0.179932
O       1.394502   -2.714555    0.247418
C      -0.290181   -4.183190   -0.570910
C       0.620355   -5.060722   -1.370370
N       0.355104   -5.356298    0.032199
H      -0.818895    2.436131   -0.794456
H      -1.411573    2.216031    0.847557
H       0.300473    1.882264    0.478098
H       0.732310   -0.354895    0.337530
H      -1.538909   -1.950576   -0.696159
H      -1.365650   -4.260618   -0.707793
H       0.184922   -5.752557   -2.085284
H       1.585776   -4.642396   -1.639204
H       1.135596   -5.004946    0.588642
