20

C      -0.044620    1.499154   -0.000698
C       0.003035   -0.009086   -0.024207
C       0.984152   -0.708906   -0.960353
N       0.497672   -2.079135   -1.186230
C       0.193485   -2.832421    0.044045
C       0.396928   -2.136089    1.380458
C      -0.317942   -0.801688    1.221504
C      -1.245860   -0.873589    0.016209
C      -0.902729   -2.153977   -0.713748
H       0.904056    1.922792    0.349775
H      -0.240949    1.906470   -0.999379
H      -0.832019    1.860471    0.668456
H       1.022497   -0.194286   -1.928228
H       2.006798   -0.739001   -0.564791
H       0.387835   -3.899496   -0.025912
H      -0.059952   -2.731420    2.179795
H       1.459066   -2.020308    1.631619
H      -0.610025   -0.249474    2.109177
H      -2.247238   -0.463201    0.010051
H      -1.627075   -2.661767   -1.340331
