18

C      -0.127984    1.630532    0.253626
C       0.035286    0.141056    0.014353
C      -1.307160   -0.581926   -0.185522
O      -1.149630   -1.981275   -0.295019
O       0.894445   -0.067335   -1.089755
C       1.758136   -1.153307   -0.796153
C       1.703133   -1.274224    0.709577
N       2.446944   -1.991917    1.429424
O       0.696715   -0.461973    1.147663
H       0.853724    2.086754    0.394922
H      -0.608289    2.093871   -0.612395
H      -0.740546    1.815419    1.139335
H      -1.992159   -0.308128    0.630156
H      -1.742305   -0.237369   -1.128118
H      -0.925312   -2.318066    0.578729
H       1.416841   -2.082524   -1.266058
H       2.768128   -0.921195   -1.143679
H       2.201187   -1.903950    2.416276
