16

N      -0.257356    1.048784   -0.117104
C      -0.390357   -0.201042   -0.204745
O      -0.570756   -0.935879    0.916902
C      -0.792760   -2.327273    0.725057
C      -2.203383   -2.607873    0.310483
C      -3.345625   -1.849746    0.356589
N      -4.422868   -2.558353   -0.128041
C      -3.945522   -3.732613   -0.459640
N      -2.603129   -3.819263   -0.218386
H      -0.110535    1.449511   -1.041079
H      -0.365446   -0.803202   -1.123027
H      -0.079970   -2.733814   -0.010120
H      -0.553753   -2.785641    1.691131
H      -3.444831   -0.835263    0.709133
H      -4.507252   -4.555353   -0.876432
H      -2.016573   -4.618303   -0.394062
