16

C      -0.163547    1.699327   -0.038601
C       0.008959    0.184313   -0.063258
C       0.819494   -0.419778   -1.252763
C       1.777740   -0.927513   -0.160721
O       1.026955   -0.253595    0.876788
C      -1.259176   -0.497028    0.192205
C      -2.305424   -1.065366    0.400937
C      -3.486325   -1.708907    0.635144
N      -4.492213   -2.256390    0.830699
H       0.800029    2.177223   -0.232792
H      -0.883156    2.018220   -0.798631
H      -0.524476    2.022002    0.941491
H       0.305055   -1.179581   -1.839659
H       1.231951    0.341418   -1.916400
H       1.782172   -2.013620   -0.015823
H       2.810037   -0.566660   -0.209317
