21

C      -0.554463    1.304607    0.323722
C      -0.028145   -0.120069    0.100093
C       0.944917   -0.566846    1.155311
C       0.528064   -1.099133    2.522921
C       1.385860   -1.936508    1.618230
C       1.121692   -3.341948    1.152747
O      -0.262013   -3.648081    1.111332
O       2.758226   -1.542451    1.744983
C       2.431504   -0.221156    1.227722
H       0.261214    2.035893    0.319585
H      -1.261595    1.591048   -0.460752
H      -1.066690    1.385902    1.287908
H      -0.864173   -0.828450    0.073624
H       0.453173   -0.182177   -0.885043
H       0.951808   -0.696888    3.439907
H      -0.520750   -1.375848    2.577163
H       1.496995   -3.474622    0.132599
H       1.682670   -4.039076    1.795904
H      -0.577867   -3.682314    2.019927
H       2.891631   -0.071671    0.243208
H       2.747024    0.578601    1.908377
