16

O       0.144409    1.309192    0.169286
C       0.101491   -0.090237    0.118354
C      -0.599140   -0.763847    1.269510
O      -1.145488    0.058174    2.246286
C      -1.262785   -0.690264   -0.113035
N      -2.515086    0.023811   -0.376395
C      -3.069274   -1.166780   -1.101998
C      -1.684741   -1.834525   -0.979735
O      -1.162476   -2.827765   -1.397261
H       1.001856    1.563126    0.529977
H       0.940327   -0.584908   -0.368390
H      -0.266614   -1.725085    1.648930
H      -0.932780    0.966173    1.979690
H      -3.008034    0.224231    0.490499
H      -3.858684   -1.713906   -0.573384
H      -3.403544   -0.946957   -2.120469
