21

C      -0.112157    1.277875   -0.304946
C       0.287549   -0.158987   -0.058360
C       1.720440   -0.513451    0.296417
C       0.645422   -0.648328    1.330294
O       0.704139    0.309715    2.362470
C       0.158044   -1.980406    1.828465
O      -1.058277   -1.861687    2.537162
C       0.301784   -3.240407    1.033521
C       1.119255   -3.042399    2.295717
H       0.383097    1.946054    0.404250
H       0.159574    1.594725   -1.317646
H      -1.194586    1.412899   -0.196639
H      -0.229414   -0.890633   -0.673935
H       2.169493   -1.402787   -0.132536
H       2.409878    0.310139    0.449195
H      -0.210312    0.517585    2.588264
H      -0.829330   -1.619695    3.441092
H      -0.534882   -3.927099    1.085068
H       0.808621   -3.212245    0.075386
H       2.181318   -2.848219    2.196673
H       0.836593   -3.622767    3.167368
