14

O       0.014135    0.043555    0.487351
C      -0.019586    1.145344    0.011599
C      -1.328355    1.924277   -0.148254
N      -1.306340    3.125411   -0.977417
C      -0.071958    3.868541   -0.745615
C       1.156130    3.016789   -1.030588
O       1.139338    1.756413   -0.333540
H      -2.081142    1.222140   -0.512894
H      -1.633000    2.197349    0.872041
H      -1.361577    2.863488   -1.957394
H      -0.050918    4.763272   -1.376358
H      -0.064526    4.204103    0.299293
H       1.227738    2.804806   -2.106146
H       2.082101    3.512181   -0.722078
