22

C      -0.162255    1.496537    0.001566
C       0.077902   -0.015817    0.055542
C       0.701487   -0.542147   -1.241885
C       0.925651   -0.430505    1.287945
C       2.250772    0.193686    1.296840
C       3.344615    0.691944    1.300216
N       0.209007   -0.085874    2.524633
C      -0.699691   -1.108601    3.037116
C       0.593234   -0.827100    3.719278
H       0.777722    2.033685   -0.161715
H      -0.841957    1.746872   -0.819215
H      -0.597171    1.854197    0.937546
H      -0.890844   -0.513735    0.197239
H       1.686167   -0.094742   -1.412186
H       0.826841   -1.630418   -1.217900
H       0.067717   -0.297288   -2.099872
H       1.078467   -1.525843    1.226641
H       4.310113    1.134120    1.307711
H      -1.637023   -0.744927    3.447695
H      -0.776897   -2.046388    2.488112
H       1.379020   -1.574380    3.623629
H       0.622395   -0.253160    4.640684
