20

C       0.090947    1.369047   -0.415522
C       0.135407   -0.068477    0.060926
C       1.450287   -0.744035    0.386682
O       2.627182    0.017896    0.394121
C       0.471446   -0.452707    1.494451
C       0.774457    0.578784    2.556422
O       1.308432   -0.028099    3.738762
C       2.621157   -0.341940    3.712968
N       3.144060   -0.913775    4.711340
H       0.943593    1.945671   -0.050048
H       0.109016    1.409773   -1.510377
H      -0.824440    1.871156   -0.085878
H      -0.604495   -0.710260   -0.410824
H       1.590318   -1.782723    0.090654
H       2.897281    0.171036   -0.517412
H      -0.062290   -1.311010    1.892392
H       1.459517    1.346197    2.184720
H      -0.144411    1.069169    2.888673
H       3.125849   -0.053365    2.783383
H       4.135066   -1.065758    4.533570
