19

C       0.045834    1.288766    0.267268
C       0.024682   -0.208308   -0.067505
N       0.618249   -0.534241   -1.358455
C       2.051676   -0.804715   -1.409276
C       2.452646   -1.961784   -0.607396
C       2.784648   -2.897591    0.069821
C      -0.092128   -0.649482   -2.536120
N      -1.450535   -0.361899   -2.448013
O       0.411560   -1.016066   -3.585521
H       1.069394    1.675708    0.276906
H      -0.521063    1.875497   -0.463673
H      -0.390154    1.465406    1.255733
H       0.577537   -0.766243    0.695589
H      -0.997178   -0.597184   -0.041558
H       2.293416   -0.970759   -2.461816
H       2.613745    0.077875   -1.073044
H       3.081605   -3.736300    0.649605
H      -1.755436    0.354805   -1.808668
H      -1.865669   -0.293992   -3.364971
