18

C       0.188937    1.437502    0.007072
C      -0.006071   -0.081359    0.001089
C      -1.477726   -0.459342    0.012961
O      -1.562001   -1.898928    0.006210
C      -2.817004   -2.400271    0.016748
O      -3.828915   -1.759184    0.030216
N      -2.711971   -3.793947    0.007616
C      -3.751371   -4.714878    0.012381
O      -4.925364   -4.471214    0.025265
H       1.251890    1.693254   -0.001512
H      -0.272875    1.902570   -0.870394
H      -0.256413    1.893487    0.897716
H       0.466746   -0.520513   -0.884888
H       0.483236   -0.529558    0.873480
H      -1.989373   -0.077947    0.902765
H      -2.005936   -0.068700   -0.863065
H      -1.770724   -4.157944   -0.003953
H      -3.338876   -5.744213    0.002229
