21

C      -0.022229    1.533606    0.053461
C       0.057125    0.017478    0.032891
C      -1.186902   -0.625838   -0.559583
C       1.329553   -0.734723   -0.245489
C       2.571755   -0.035077    0.312204
C       1.938844   -0.052329    1.737723
C       0.693487   -0.772125    1.176799
C       0.024184   -1.822613    1.864163
C      -0.527663   -2.698063    2.481384
H       0.866730    2.009150    0.471395
H      -0.154635    1.918960   -0.964330
H      -0.884046    1.862972    0.644578
H      -1.342309   -0.275729   -1.586198
H      -1.113172   -1.715794   -0.576469
H      -2.076875   -0.364806    0.023286
H       1.346628   -1.538564   -0.973074
H       3.464571   -0.660752    0.254970
H       2.809130    0.942768   -0.117858
H       2.492391   -0.692147    2.426626
H       1.760030    0.909985    2.225827
H      -1.016458   -3.471392    3.019600
