21

C      -0.003773    1.549868   -0.041383
C       0.040721    0.039963   -0.000455
C       0.488469   -0.702838   -1.264972
C       0.346193   -2.179519   -0.790344
C      -0.142976   -1.935396    0.635957
C       0.725150   -0.752192    1.184184
C      -0.067536   -0.301472    2.405879
O      -1.407655   -0.323222    1.868071
C      -1.178658   -0.781691    0.535974
H       1.001707    1.978088   -0.127739
H      -0.582573    1.896513   -0.905271
H      -0.475841    1.959162    0.856175
H      -0.153916   -0.468340   -2.120567
H       1.514008   -0.444790   -1.549002
H      -0.376446   -2.746485   -1.385487
H       1.293542   -2.726190   -0.816346
H      -0.356546   -2.798318    1.268722
H       1.810877   -0.826610    1.270702
H       0.009216   -0.992352    3.254637
H       0.184312    0.708022    2.752092
H      -2.126701   -0.865280    0.002622
