17

C      -0.342277   -1.304531    0.071694
C      -0.189385   -0.112855   -0.004620
C      -0.003903    1.288844   -0.096249
C      -0.529528    2.427942    0.756257
C       0.917606    2.775379    1.267244
C       1.317708    2.106770   -0.053993
C       1.420962    2.910340   -1.129801
C       0.092540    2.942927   -1.878076
C      -0.813715    2.337680   -0.790096
H      -0.475013   -2.355694    0.136709
H      -1.388419    2.354224    1.418965
H       1.206606    3.821961    1.395794
H       1.109841    2.210229    2.185702
H       2.062511    3.787475   -1.128896
H      -0.136237    3.985089   -2.131033
H       0.009826    2.362031   -2.807306
H      -1.861934    2.139503   -1.005562
