21

C      -0.186113    1.574180   -0.049575
C       0.047181    0.073127    0.019651
O       0.820600   -0.328934   -1.118154
C       1.604409   -1.474303   -0.806044
C       3.109624   -1.143640   -0.592425
C       2.893857   -1.169377    0.940028
C       2.233467    0.112174    1.520615
C       0.807069   -0.463752    1.233709
C       1.460447   -1.770383    0.716181
H       0.757684    2.124075   -0.000329
H      -0.681399    1.835311   -0.988889
H      -0.825813    1.900142    0.776886
H      -0.931954   -0.437166   -0.014991
H       1.379760   -2.276573   -1.515340
H       3.750130   -1.967695   -0.921299
H       3.459245   -0.212973   -1.047739
H       3.662816   -1.643093    1.550419
H       2.415077    0.227224    2.591873
H       2.497671    1.051924    1.027533
H       0.167752   -0.543012    2.115026
H       1.119291   -2.748989    1.049789
