16

N      -0.027429    1.224478   -0.215727
C      -0.007980   -0.019658   -0.041482
C      -1.259538   -0.927337   -0.069619
C      -0.573695   -2.243071   -0.257595
C      -0.468983   -3.781204   -0.148827
C       0.883951   -3.198581   -0.704867
O       0.104891   -2.336117   -1.591180
C       0.798320   -2.108367    0.403291
O       1.146043   -0.754140    0.211154
H       0.912634    1.617411   -0.148950
H      -1.791900   -0.865381    0.884928
H      -1.928554   -0.627198   -0.875585
H      -0.487434   -4.228854    0.848117
H      -1.035385   -4.346394   -0.887388
H       1.735557   -3.733027   -1.124649
H       0.951058   -2.415507    1.440882
