23

C      -0.261833    1.537068   -0.050935
C       0.063596    0.045738    0.007080
C       0.914786   -0.467309   -1.176543
C       1.376700   -1.865520   -0.737877
C       2.600137   -2.456897   -1.433045
C       1.552823   -1.717753    0.779976
O       2.189754   -2.462279    1.482937
C       0.833322   -0.445963    1.261396
C       1.880220    0.527251    1.833946
H       0.644895    2.150181   -0.059146
H      -0.826302    1.771870   -0.959704
H      -0.869018    1.849834    0.805330
H      -0.886801   -0.505667   -0.019173
H       0.357908   -0.472862   -2.118119
H       1.788104    0.183098   -1.323322
H       0.529031   -2.559848   -0.857590
H       3.446374   -1.762736   -1.390328
H       2.903849   -3.382550   -0.937172
H       2.394291   -2.673569   -2.485442
H       0.150022   -0.719283    2.072978
H       2.586339    0.866308    1.068330
H       1.403799    1.411017    2.266574
H       2.453129    0.022281    2.615912
