17

C      -0.007539    1.431537   -0.090730
N       0.086336   -0.008973    0.028610
C       0.627935   -0.603057    1.121820
O       1.086439   -0.050707    2.102186
N       0.618358   -2.009440    1.028745
C       1.098698   -3.024663    1.975243
C       0.629590   -4.101166    0.948355
C       0.181106   -2.915198    0.077643
O      -0.341062   -2.744219   -0.995952
H       0.552532    1.795329   -0.959332
H      -1.049969    1.754772   -0.187403
H       0.416936    1.868967    0.813431
H      -0.255233   -0.610285   -0.710598
H       2.174875   -2.975962    2.152782
H       0.565631   -3.014433    2.928030
H       1.419954   -4.708014    0.503682
H      -0.185712   -4.747175    1.277887
