20

C      -0.130819    1.579663   -0.096391
C       0.004835    0.060683   -0.053599
C      -1.342008   -0.598297    0.247231
C       0.706598   -0.623773   -1.245169
C       2.149133   -0.225216   -1.365426
C       1.761974   -1.239184   -0.329539
C       1.134824   -0.550967    0.895677
C       1.980706    0.367691    1.645062
N       2.646208    1.116817    2.223055
H       0.819708    2.078131   -0.299774
H      -0.839232    1.870707   -0.879728
H      -0.506945    1.965935    0.856915
H      -2.075811   -0.336600   -0.523153
H      -1.257311   -1.689899    0.269769
H      -1.736409   -0.264455    1.212960
H       0.173217   -1.093622   -2.063542
H       2.666643   -0.632208   -2.227950
H       2.494128    0.761344   -1.069894
H       2.166254   -2.242983   -0.314174
H       0.693924   -1.266509    1.593800
