21

C       0.198739    1.585367    0.084222
C       0.036055    0.056484    0.036867
C       0.589310   -0.580761   -1.260278
C      -0.129897   -0.150147   -2.528174
O      -1.510473   -0.414548   -2.530341
C       0.347328    1.035930   -3.334388
C       0.527094   -0.376720   -3.855265
C       0.760439   -0.558915    1.218726
O       0.261190   -1.270758    2.050196
H       1.256367    1.870730    0.044263
H      -0.300059    2.062648   -0.762733
H      -0.226045    1.997448    1.004652
H      -1.018835   -0.218196    0.143973
H       1.657828   -0.350462   -1.357449
H       0.502136   -1.670987   -1.175166
H      -1.946024    0.244948   -1.979832
H      -0.413310    1.645269   -3.809954
H       1.224820    1.579788   -3.001826
H       1.525709   -0.799332   -3.873968
H      -0.121843   -0.695821   -4.662076
H       1.846351   -0.297816    1.265623
