16

C       0.174512   -1.199185    0.189125
C       0.099523   -0.002355    0.100930
C       0.004008    1.437686    0.012539
C      -0.386534    2.254080    1.300236
C       0.869520    3.148643    1.122573
C       2.129240    2.599472    1.811008
O       2.411531    1.722780    0.692349
C       1.327641    2.265568   -0.071878
H       0.250756   -2.255537    0.262944
H      -0.648484    1.720624   -0.821504
H      -1.339718    2.777170    1.205475
H      -0.398739    1.667112    2.221150
H       0.731106    4.227591    1.080026
H       2.935033    3.331246    1.950959
H       1.976894    2.046895    2.746299
H       1.642725    2.612254   -1.059859
