17

C       0.072669    1.530435    0.034282
C       0.042908    0.079665   -0.007315
C       0.014328   -1.129761   -0.041165
C      -0.016722   -2.488646   -0.079380
C      -0.047044   -3.697456   -0.112828
C      -0.069414   -5.145560   -0.156201
C      -1.449621   -5.783722    0.110705
C      -1.468630   -7.300724    0.044224
O      -2.430270   -5.129645    0.351886
H       1.073273    1.913759   -0.195929
H      -0.624540    1.962024   -0.692825
H      -0.207002    1.904235    1.025803
H       0.282561   -5.512191   -1.131612
H       0.635430   -5.568125    0.575006
H      -0.757514   -7.726746    0.760788
H      -2.472925   -7.664093    0.262861
H      -1.162428   -7.643277   -0.950710
