18

C      -0.026204    1.526822   -0.013864
C      -0.015281    0.023907    0.032889
N       0.377734   -0.758911   -1.225006
C      -0.305740   -1.903920   -0.489648
C       0.614065   -2.024198    0.720157
C       0.807667   -0.747078    1.065695
C      -1.311397   -0.853115    0.059138
C      -2.562847   -0.858670    0.801865
O      -2.491345   -0.478007   -0.599668
H       0.944000    1.905909   -0.349221
H      -0.797674    1.885991   -0.701926
H      -0.233195    1.947613    0.975642
H      -0.268306   -0.460303   -1.964172
H      -0.600371   -2.786576   -1.054215
H       0.964518   -2.937563    1.177226
H       1.362334   -0.316052    1.886734
H      -3.083418   -1.795162    0.994664
H      -2.800274   -0.044254    1.484296
