20

N       0.409558    0.425722    1.301363
C       0.005213   -0.179400    0.269037
O      -0.943234   -1.126751    0.367364
C      -1.279906   -1.818201   -0.844316
C      -2.533531   -2.609258   -0.592613
C      -2.931498   -3.853004   -1.343788
C      -1.728793   -4.753716   -1.661211
C      -1.378141   -4.800476   -0.137997
C      -2.595371   -3.914035    0.153725
H       1.112709    1.115136    1.043588
H       0.352170   -0.007911   -0.760604
H      -1.444976   -1.090592   -1.651044
H      -0.443477   -2.461266   -1.139858
H      -3.384943   -1.970779   -0.367521
H      -3.897394   -3.918893   -1.830837
H      -2.038165   -5.732186   -2.034521
H      -0.973366   -4.354185   -2.345854
H      -1.482253   -5.805948    0.274107
H      -0.405143   -4.404711    0.169738
H      -3.263262   -4.033529    0.998007
