20

C       0.208392    1.602221   -0.144536
C      -0.015775    0.089738    0.047677
C       0.639929   -0.458010    1.276994
C       0.092141   -0.928729    2.407925
C      -1.336516   -1.068592    2.817039
C       1.178115   -1.348630    3.310911
N       1.038882   -1.843765    4.469060
O       2.381041   -1.116594    2.691304
C       2.139052   -0.555958    1.401291
H       1.271620    1.843738   -0.239013
H      -0.293428    1.951678   -1.051511
H      -0.188818    2.166446    0.704454
H      -1.090035   -0.115902    0.082918
H       0.371668   -0.440575   -0.833247
H      -1.560555   -2.110569    3.067609
H      -1.531337   -0.487464    3.724537
H      -2.024409   -0.737736    2.035631
H       1.948157   -2.051084    4.884183
H       2.581168   -1.208675    0.635059
H       2.642372    0.418131    1.336698
