18

C      -0.112062    1.594687    0.055700
C       0.102989    0.075628   -0.050399
C       0.731935   -0.521918    1.173507
C       1.967535   -1.076954    1.279050
O       2.207104   -1.504407    2.551704
C       1.094836   -1.216748    3.287016
C       1.124406   -1.599306    4.723278
C       0.166128   -0.616663    2.495256
H       0.840234    2.113231    0.203556
H      -0.579558    1.988459   -0.852415
H      -0.759269    1.843957    0.902592
H      -0.863056   -0.409365   -0.242065
H       0.731491   -0.143451   -0.921214
H       2.763838   -1.241496    0.571254
H       1.940597   -1.098529    5.256613
H       0.182644   -1.320303    5.201009
H       1.266427   -2.678741    4.849863
H      -0.811725   -0.282172    2.808111
