19

C      -0.013127    1.382609   -0.231529
O      -0.003021    0.018081    0.158461
C      -1.273289   -0.593064    0.087773
C      -1.627450   -1.252903   -1.301123
O      -0.658858   -1.087815   -2.306320
C      -1.748132   -2.609849   -0.594430
C      -0.444856   -2.949586    0.088818
C      -1.367325   -1.962367    0.742239
O      -1.949139   -2.182143    1.977493
H       1.010687    1.752163   -0.136126
H      -0.344735    1.505929   -1.270654
H      -0.668867    1.976209    0.421939
H      -2.057395    0.083630    0.449928
H      -2.582943   -0.908710   -1.704810
H       0.176008   -0.913455   -1.853028
H      -2.501294   -3.362458   -0.790139
H      -0.440740   -3.920404    0.574007
H       0.510190   -2.653675   -0.334416
H      -1.251303   -2.197673    2.641466
