18

C       0.079038    1.458398   -0.014707
O       0.230931    0.063753    0.112915
C       0.548078   -0.560430   -1.112753
C       0.635055   -2.036757   -0.885099
N       1.582526   -2.737824   -1.458963
O       1.352404   -4.057792   -1.075707
C       0.274031   -4.107652   -0.269174
C      -0.111673   -5.446787    0.251132
C      -0.231409   -2.855932   -0.108419
H       1.004545    1.939207   -0.367750
H      -0.730983    1.718597   -0.714746
H      -0.167934    1.850090    0.974636
H      -0.233303   -0.343442   -1.862499
H       1.502366   -0.195799   -1.521498
H      -0.327132   -6.139160   -0.569205
H       0.696947   -5.883690    0.846332
H      -1.000117   -5.364420    0.879724
H      -1.078288   -2.548188    0.480466
