18

C       0.329715    1.336157    0.143196
C       0.015965   -0.117240   -0.049541
N       0.203141   -0.716201   -1.143159
C      -0.074608   -2.140574   -1.272124
C      -0.847299   -2.778998   -0.130275
C      -0.126382   -3.105342    1.164205
O       1.245237   -2.866877    1.215790
C      -1.056160   -1.923061    1.089102
O      -0.467903   -0.648127    1.129614
H       0.757297    1.740670   -0.773079
H      -0.576908    1.890723    0.406218
H       1.037227    1.465667    0.968844
H      -0.635166   -2.279094   -2.202508
H       0.888035   -2.647218   -1.410565
H      -1.667654   -3.430475   -0.411953
H      -0.455460   -3.975053    1.729835
H       1.386967   -2.085382    1.763018
H      -1.998938   -1.930377    1.624898
