13

O      -0.039500    1.420838    0.103426
C       0.020784    0.012085    0.074932
C      -1.408812   -0.604652   -0.051834
N      -1.002302   -1.127416   -1.360975
C       0.245743   -0.569326   -1.378013
O       1.125465   -0.505358   -2.189951
C       0.880533   -0.551268    1.102201
C       1.622282   -1.007431    1.930925
H       0.848035    1.750104   -0.083281
H      -1.657158   -1.371327    0.684989
H      -2.181183    0.167786   -0.090446
H      -1.533600   -1.574421   -2.093397
H       2.276120   -1.410243    2.664945
