17

C      -0.029823    0.677120   -0.735086
C       0.070615   -0.146915    0.545595
O       0.412341    0.649433    1.673478
C      -1.212069   -0.919184    0.856696
O      -1.436455   -1.858200   -0.203664
C      -2.669916   -2.425206   -0.229938
N      -2.764328   -3.276205   -1.296085
O      -3.556814   -2.183247    0.553480
H       0.909880    1.202851   -0.923329
H      -0.257316    0.037309   -1.591674
H      -0.831614    1.422385   -0.651953
H       0.890725   -0.868014    0.449940
H      -0.221838    1.373329    1.726302
H      -1.107251   -1.449585    1.808192
H      -2.072139   -0.245092    0.937059
H      -1.918128   -3.586039   -1.742989
H      -3.549424   -3.904327   -1.289761
