19

O      -0.017075    0.001206    0.128091
C      -0.010954    1.193643    0.136489
C      -1.076729    2.294520    0.023863
N      -0.039330    3.264061    0.446623
C       0.045903    4.515912   -0.288107
C       1.178153    5.383851    0.210110
C       0.980931    6.847268    0.362075
N       1.108738    5.984799    1.547522
C       1.061770    2.282984    0.281602
H      -1.416368    2.413104   -1.019386
H      -1.952766    2.223711    0.677114
H       0.170717    4.344874   -1.377465
H      -0.905928    5.046086   -0.156682
H       2.173781    5.026016   -0.048256
H       1.809565    7.530616    0.200076
H       0.004777    7.255191    0.110179
H       0.194367    5.798549    1.953421
H       1.757280    2.205654    1.122800
H       1.639470    2.395195   -0.651992
