17

C       0.139812    1.570220    0.090378
C       0.051280    0.081527    0.053398
C       0.121006   -0.974818   -0.995195
O       1.117218   -1.763624   -0.352035
C       0.743311   -1.079787    0.871220
C      -0.659690   -1.671435    1.200003
C      -1.282693   -1.096573    2.441712
O      -0.901156   -0.091341    2.993114
C      -1.109430   -0.907569   -0.057787
H       1.161852    1.913320   -0.104094
H      -0.512706    2.014191   -0.668967
H      -0.170294    1.948275    1.068989
H       0.068990   -0.956923   -2.076157
H       1.533826   -1.010521    1.613995
H      -0.745281   -2.764173    1.182999
H      -2.155971   -1.663406    2.836635
H      -2.116351   -0.732283   -0.416263
