23

C      -0.054170    1.564699   -0.425096
O      -0.184632    0.155941   -0.357289
C       0.659311   -0.592497   -1.224349
C       2.139333   -0.324613   -0.957630
C       0.228880   -2.070035   -1.045547
C      -0.242636   -2.506115   -2.445222
C      -0.553430   -1.169618   -3.141070
C      -1.987630   -0.676882   -2.941646
O       0.410389   -0.265825   -2.583759
H       0.865996    1.921039    0.058234
H      -0.073610    1.920264   -1.461424
H      -0.909038    1.982545    0.112422
H       2.361500   -0.454073    0.105314
H       2.750431   -1.022313   -1.535807
H       2.416213    0.688619   -1.258404
H       1.050883   -2.684796   -0.673229
H      -0.575867   -2.105677   -0.309601
H       0.561770   -3.020334   -2.979578
H      -1.104746   -3.177181   -2.414977
H      -0.334951   -1.213211   -4.213344
H      -2.244985   -0.633643   -1.880359
H      -2.102206    0.326922   -3.361047
H      -2.693033   -1.343054   -3.450253
