15

C       0.065854    1.359492   -0.182828
C       1.497781    1.870571    0.203857
C       2.091469    0.553990    0.585573
C       1.120004   -0.394976    0.710987
O      -0.137865    0.046677    0.400399
C       1.683572   -1.590718    1.212258
C       3.029126   -1.305108    1.386965
N       3.270146    0.001280    1.023539
H      -0.735667    2.010319    0.172689
H      -0.012537    1.261393   -1.272341
H       1.966517    2.377181   -0.647044
H       1.468747    2.589113    1.035643
H       1.199598   -2.530735    1.421417
H       3.834947   -1.940304    1.718164
H       4.175893    0.434568    1.010647
