17

C       0.200339    1.092410    0.590066
N      -0.046023    0.028501   -0.393261
C      -1.258139   -0.670990   -0.206406
C      -1.333853   -1.999030    0.083470
O      -0.390468   -2.952063    0.244192
N      -2.674133   -2.305370    0.186958
C      -3.353256   -1.129670   -0.045519
N      -4.746642   -1.074789    0.069970
N      -2.545792   -0.135151   -0.294030
H       1.146765    1.589349    0.354333
H      -0.597776    1.847212    0.624121
H       0.286891    0.646382    1.585548
H      -0.009997    0.428234   -1.326483
H       0.450159   -2.499154    0.086517
H      -3.060650   -3.177381    0.505719
H      -5.047059   -0.120187   -0.089240
H      -5.221780   -1.680007   -0.592613
