19

C      -0.092551    1.574378   -0.108941
C      -0.017654    0.067453    0.040048
N       1.308704   -0.559859   -0.163970
C       0.705380   -0.622534    1.169788
C       1.375399    0.109974    2.283559
C       0.735509    0.126241    3.651686
C       1.987847   -0.676482    3.419882
C      -1.163625   -0.646609   -0.482967
N      -2.074146   -1.217439   -0.912602
H       0.825990    2.033809    0.257616
H      -0.213374    1.846740   -1.161302
H      -0.941129    1.977869    0.450942
H       1.221122   -1.446487   -0.654018
H       0.266549   -1.574078    1.469329
H       1.909815    1.002685    1.979563
H       0.802719    1.038106    4.233889
H      -0.196856   -0.413721    3.780099
H       1.900637   -1.757709    3.392326
H       2.920528   -0.317130    3.839161
