19

C       0.255671    1.238997    0.215747
O      -0.401364    0.128030   -0.363321
C       0.379402   -0.539868   -1.295589
C       1.389852   -1.615458   -0.917083
C       1.300268   -2.245557    0.460197
O      -0.063592   -2.600757    0.664413
C      -0.702374   -2.776505   -0.588971
C       0.093176   -1.973167   -1.612965
O       0.090887   -2.420029   -2.933358
H       1.180918    0.943690    0.729088
H       0.507084    1.997402   -0.541596
H      -0.433482    1.676553    0.941243
H       0.680147    0.065572   -2.154520
H       2.331706   -1.644504   -1.452770
H       1.955146   -3.131206    0.498238
H       1.585090   -1.580029    1.282370
H      -0.694543   -3.828465   -0.916208
H      -1.741487   -2.449054   -0.475136
H      -0.700523   -2.078301   -3.363816
