15

C      -0.030763    1.518956    0.128618
C       0.010823    0.037370   -0.029059
C       0.019562   -0.752447   -1.159838
O      -0.008866   -0.326130   -2.456096
C       0.070997   -2.087898   -0.699525
N       0.166795   -3.216351   -1.539767
N       0.099832   -2.142709    0.627724
N       0.062390   -0.846163    1.010730
H       0.740881    1.876373    0.819979
H       0.141810    1.989273   -0.842178
H      -0.999861    1.872013    0.501883
H       0.362342   -1.039973   -2.989772
H      -0.721890   -3.428836   -1.984302
H       0.441975   -4.028433   -0.997490
H       0.087176   -0.629813    1.991375
