16

O      -0.141768    1.461221   -0.052155
C       0.026772    0.079336   -0.040803
C      -1.243928   -0.689024    0.090303
C      -0.529069   -0.685687   -1.246419
C      -0.106364   -2.113778   -1.492190
O       0.381883   -2.551583   -2.503112
C      -0.572849   -2.939006   -0.306009
C      -0.011639   -2.656576    1.047611
N      -1.282488   -2.059949    0.637474
H       0.546419    1.845566   -0.606300
H       0.944439   -0.262500    0.430319
H      -2.151285   -0.120389    0.255665
H      -0.844598   -0.098506   -2.100018
H      -0.999914   -3.911304   -0.533002
H      -0.100364   -3.420958    1.814353
H       0.880457   -2.047090    1.137423
