20

C      -0.086986    1.520781    0.150281
C      -0.023810   -0.001115   -0.008953
C       0.676122   -0.471168   -1.295533
C       0.869543   -2.008044   -1.378389
C       0.649216   -2.403069   -2.862277
O      -0.030186   -3.639399   -3.045814
C      -0.078449   -1.202390   -3.421916
C      -0.068742   -0.170354   -2.580422
H       0.917166    1.959498    0.151963
H      -0.651729    1.992152   -0.660815
H      -0.571924    1.798875    1.091142
H       0.506604   -0.431296    0.850337
H      -1.038020   -0.421437    0.016244
H       1.659234    0.024006   -1.334794
H       1.834185   -2.341304   -0.987870
H       0.093309   -2.504944   -0.782487
H       1.605970   -2.551740   -3.379524
H      -0.916579   -3.532999   -2.682340
H      -0.518073   -1.217192   -4.413491
H      -0.505221    0.801975   -2.784064
