19

O      -0.117766    1.492176    0.266705
C      -0.041159    0.114256    0.024570
C       0.422679   -0.728644    1.261186
O       0.503500    0.049147    2.442129
C      -0.854679   -1.631094    1.109842
C      -1.872537   -1.487293    2.208942
C      -2.814046   -0.590084    1.901203
C      -2.641729    0.003865    0.521811
C      -1.379885   -0.696003   -0.034887
H       0.161821    1.598345    1.189779
H       0.577150   -0.065879   -0.862989
H       1.381574   -1.239647    1.147428
H      -0.381753    0.065278    2.834012
H      -0.625681   -2.668570    0.853885
H      -1.818818   -2.039984    3.141220
H      -3.640980   -0.316024    2.549092
H      -3.528292   -0.175290   -0.098153
H      -2.497983    1.090253    0.558028
H      -1.562513   -1.169662   -1.000338
