17

O       0.554259   -0.021385    0.929203
C      -0.137214    0.292773   -0.277706
C      -1.468860   -0.377625   -0.250404
C      -1.804439   -1.662633    0.146605
C      -1.686748   -3.056034    0.750765
C      -3.255950   -3.134777    0.547944
N      -3.127404   -1.786692   -0.023874
N      -3.761269   -0.707056   -0.493746
C      -2.734505    0.150585   -0.636819
H       1.449892    0.322049    0.851612
H      -0.278782    1.379175   -0.390366
H       0.449327   -0.043476   -1.148868
H      -1.116145   -3.785384    0.171586
H      -1.364547   -3.089397    1.793266
H      -3.614032   -3.887518   -0.158843
H      -3.845723   -3.170104    1.467302
H      -2.928941    1.141848   -1.023012
