18

C       0.163970    1.369954    0.165919
O      -0.135517    0.010580   -0.108202
C       0.575015   -0.533537   -1.192089
C       2.018468   -0.638868   -0.874334
N       3.136288   -0.683748   -0.585835
C      -0.039581   -1.922211   -1.509418
C      -1.541064   -1.790530   -1.827164
C       0.687020   -2.557121   -2.604768
C       1.267894   -3.061307   -3.527659
H       1.213299    1.500805    0.459989
H      -0.044492    2.006936   -0.705884
H      -0.481637    1.670338    0.992882
H       0.479415    0.105827   -2.084957
H       0.077877   -2.527424   -0.601871
H      -1.692807   -1.186734   -2.727177
H      -1.970226   -2.778650   -2.007205
H      -2.061968   -1.319444   -0.992542
H       1.795557   -3.516742   -4.329108
