8

O       0.002032    0.003098    0.003197
C      -0.014088    1.189579    0.009530
O      -1.132130    1.982308    0.028768
C      -0.706893    3.295497    0.029907
C       0.621250    3.313637    0.012178
O       1.082003    2.012547   -0.000835
H      -1.462099    4.060745    0.044064
H       1.355392    4.099223    0.006451
