19

C      -0.852334    1.265007    0.314197
C      -0.168441   -0.072390    0.117846
O       0.868754   -0.017656   -0.880650
C       1.866546   -0.495515    0.040501
C       0.851549   -0.598885    1.196915
C       1.087971    0.292247    2.386681
O       1.730376    1.322215    2.325444
C       0.468981   -0.113875    3.715211
O       0.696945    0.840771    4.703975
H      -0.136361    2.036822    0.605723
H      -1.323096    1.566385   -0.626550
H      -1.635048    1.195822    1.078047
H      -0.908639   -0.843763   -0.134309
H       2.302835   -1.448557   -0.279411
H       2.657402    0.242705    0.207268
H       0.623328   -1.615080    1.524790
H      -0.610363   -0.282469    3.558482
H       0.890611   -1.096696    3.992127
H       1.246693    1.517868    4.277021
