20

C       0.145033    0.971038   -0.535450
O      -0.189953    0.139693    0.564486
C      -1.369670   -0.608893    0.411629
C      -1.080340   -2.114219    0.175801
C      -0.242075   -2.685576    1.328777
O      -2.370444   -2.689874    0.070990
C      -2.431427   -4.083621   -0.187813
C      -0.344969   -2.282160   -1.104762
N       0.207253   -2.430846   -2.109504
H       1.067612    1.489746   -0.265402
H       0.316143    0.394721   -1.452469
H      -0.639539    1.717989   -0.722798
H      -1.950752   -0.546414    1.339224
H      -1.995775   -0.239503   -0.408910
H      -0.844310   -2.667468    2.241838
H       0.082079   -3.709748    1.133795
H       0.640776   -2.059784    1.472195
H      -2.044200   -4.677292    0.649746
H      -3.488192   -4.319467   -0.327161
H      -1.882431   -4.350109   -1.100313
