19

C      -0.103255    1.576052   -0.035880
C       0.022714    0.051759   -0.001472
C       0.777679   -0.522287   -1.199088
N       2.168608   -0.045551   -1.269157
C       1.866643   -1.382579   -0.688529
C       1.798853   -1.333128    0.818611
O       2.475663   -1.963014    1.605640
N       0.798292   -0.446778    1.136274
C       0.451593   -0.152288    2.506760
H       0.887438    2.029474   -0.113892
H      -0.699191    1.880728   -0.902229
H      -0.602945    1.956809    0.859395
H      -0.985456   -0.392147    0.028029
H       0.233892   -0.740904   -2.110834
H       2.517388   -0.181056   -2.216259
H       2.227408   -2.282509   -1.169743
H       1.103276   -0.754793    3.142095
H       0.596916    0.906878    2.747936
H      -0.594398   -0.413935    2.713850
