21

C       0.208685    1.594151   -0.282335
C       0.026797    0.111455    0.053709
N       0.478493   -0.722668   -1.066751
C       1.459763   -1.407976   -0.627036
N       2.185802   -2.335765   -1.328537
O       1.840691   -1.279990    0.668640
C       0.822428   -0.437333    1.298369
C       1.554768    0.588705    2.154399
C      -0.058282   -1.352381    2.149486
H       1.258707    1.834226   -0.475665
H      -0.355052    1.823751   -1.190413
H      -0.156136    2.242055    0.521436
H      -1.043711   -0.062805    0.224475
H       2.126655   -2.226917   -2.329025
H       3.115461   -2.504157   -0.976529
H       2.231586    1.200403    1.554163
H       0.842792    1.251099    2.655414
H       2.144311    0.082255    2.924540
H       0.534655   -1.867774    2.910848
H      -0.836358   -0.768592    2.652286
H      -0.546844   -2.103043    1.521362
