21

C       0.068518    1.449318   -0.263071
C      -0.013600   -0.024271    0.091889
C      -1.111277   -0.739152   -0.678014
O       1.245264   -0.722316    0.155072
C       0.520979   -0.541718    1.379011
C       1.174316    0.363268    2.406908
C      -0.052310   -1.823207    2.001246
C       0.960475   -2.647151    2.654348
C       1.796399   -3.323378    3.191304
H       0.866992    1.968017    0.265470
H       0.251030    1.557468   -1.337771
H      -0.879628    1.949750   -0.037078
H      -1.030845   -0.493636   -1.742463
H      -1.043764   -1.823262   -0.588753
H      -2.102426   -0.417007   -0.339916
H       1.725228    1.177730    1.938530
H       0.424329    0.788088    3.083652
H       1.879076   -0.217049    3.009380
H      -0.816795   -1.537523    2.736819
H      -0.560016   -2.421825    1.242803
H       2.534033   -3.927135    3.658862
