20

C      -0.364514    1.112556   -0.934871
C      -0.093844    0.129890    0.211570
C      -1.297894   -0.738929    0.493110
O      -1.575774   -1.808463   -0.421574
C      -1.269056   -2.141632    0.939872
C      -0.008697   -2.934003    1.180516
O      -0.227895   -4.332319    0.993139
C      -0.284776   -4.761545   -0.289035
N      -0.514429   -5.978926   -0.526523
H       0.508573    1.742591   -1.126423
H      -0.605794    0.572751   -1.855291
H      -1.208299    1.770373   -0.700648
H       0.772400   -0.491618   -0.032785
H       0.155698    0.681676    1.127089
H      -2.191776   -0.172975    0.768253
H      -2.125233   -2.511924    1.506334
H       0.804344   -2.585028    0.535350
H       0.306733   -2.831241    2.222953
H      -0.116583   -3.966601   -1.025300
H      -0.511753   -6.139247   -1.531788
