13

O       0.086284    0.025012    0.066788
C       0.028349    1.208453    0.016320
O      -1.090790    1.951598   -0.258733
C      -0.721581    3.278780   -0.219018
C       0.575570    3.364137    0.076324
O       1.065752    2.078113    0.227064
C       1.480968    4.499281    0.261877
C       2.755065    4.374418    0.989043
O       2.732172    4.455558   -0.434277
H      -1.483075    4.012449   -0.415052
H       0.977827    5.464916    0.239795
H       3.153197    5.246042    1.506047
H       3.040746    3.407039    1.395642
