15

O       0.119949    0.088315   -0.688496
C       0.052243    1.166703   -0.184945
C      -1.085868    2.001615    0.432012
C      -0.103276    3.210106    0.543471
C       0.332392    3.631371    1.940466
C       1.541756    2.753378    2.266404
O       2.114368    2.637567    3.306283
O       1.937746    2.073296    1.142596
C       1.078927    2.316257    0.032604
H      -1.945996    2.134975   -0.229263
H      -1.448009    1.609405    1.388224
H      -0.360789    4.043442   -0.108245
H       0.658035    4.675512    1.982804
H      -0.429440    3.499891    2.712152
H       1.676814    2.623554   -0.828501
