17

C      -0.540822    1.478524   -0.146126
C      -0.320107   -0.029146   -0.231759
C      -1.185971   -0.824973    0.726092
O      -1.862713   -0.324943    1.589863
C      -1.167028   -2.356888    0.526618
C      -2.081936   -2.722032   -0.639666
O      -1.737369   -2.596883   -1.795814
C      -3.404570   -3.188518   -0.279499
C      -4.499528   -3.579689    0.031870
H       0.136197    2.005943   -0.823451
H      -1.567834    1.738752   -0.416289
H      -0.369461    1.840471    0.870495
H      -0.490775   -0.420217   -1.242823
H       0.723901   -0.290459   -0.003196
H      -0.157558   -2.683546    0.261874
H      -1.500308   -2.827891    1.451532
H      -5.471336   -3.921334    0.295318
