21

C       0.014318    1.578325    0.054834
C       0.024343    0.048744    0.005219
C      -1.386711   -0.544192    0.018877
C      -1.369186   -2.074210   -0.031076
O      -0.313298   -2.686086   -0.075448
N      -2.580403   -2.725251   -0.023860
C      -2.601717   -4.177368   -0.071032
C      -3.880695   -2.089882    0.025973
H       1.032444    1.979298    0.044196
H      -0.518374    2.004347   -0.803346
H      -0.477471    1.947340    0.962414
H       0.547986   -0.299812   -0.890279
H       0.588484   -0.356026    0.851103
H      -1.921677   -0.212552    0.918641
H      -1.962457   -0.155858   -0.831688
H      -3.103712   -4.586120    0.815544
H      -3.142590   -4.528042   -0.959637
H      -1.574091   -4.534106   -0.105275
H      -4.478165   -2.356346   -0.856817
H      -4.439305   -2.416548    0.913930
H      -3.794295   -1.006457    0.060999
