21

C      -0.038743    1.577067   -0.053526
C       0.022975    0.054209    0.046708
O      -1.348957   -0.357253    0.200278
C       0.700258   -0.607911   -1.187344
C       1.541784   -1.788867   -0.645148
C       1.629213   -1.498697    0.832814
C       0.846122   -0.487041    1.208819
C       0.648600    0.029387    2.597754
O       1.334040   -0.801491    3.520314
H       0.965977    2.003188   -0.122445
H      -0.603668    1.868696   -0.944145
H      -0.545127    2.004381    0.816723
H      -1.344203   -1.306411    0.366444
H      -0.059020   -0.904218   -1.915449
H       1.356063    0.118124   -1.677330
H       1.070294   -2.764389   -0.828833
H       2.528972   -1.843075   -1.118542
H       2.244078   -2.074393    1.514091
H       1.010085    1.070554    2.659194
H      -0.433734    0.064135    2.807453
H       1.229557   -0.420614    4.396654
