22

C      -0.091998    1.517755   -0.352527
C       0.004194    0.152091    0.322632
N      -1.250707   -0.577603    0.140394
C      -1.572944   -1.346385   -1.034311
C      -0.370242   -2.127224   -1.597179
C      -0.267441   -2.858110   -0.211264
O       0.924612   -2.805208    0.529272
C       1.926857   -3.664834    0.032666
C      -1.414939   -1.997695    0.329121
H       0.816351    2.101468   -0.174027
H      -0.216342    1.411737   -1.435749
H      -0.949503    2.079062    0.029652
H       0.883555   -0.393183   -0.039274
H       0.140464    0.272764    1.403120
H      -2.485161   -1.120922   -1.575710
H      -0.635446   -2.803882   -2.412166
H       0.493374   -1.528787   -1.899753
H      -0.597017   -3.903436   -0.318537
H       1.594261   -4.714919    0.032206
H       2.228072   -3.400119   -0.991997
H       2.794094   -3.569252    0.690253
H      -2.163981   -2.341842    1.034779
