20

C      -0.235226    1.511581   -0.103330
C       0.149820    0.024614    0.004366
C       0.810023   -0.505062   -1.224610
C       2.043945   -0.975745   -1.440160
C       2.040197   -1.345941   -2.930576
C       1.312506   -0.093009   -3.528818
C       0.155199   -0.629332   -2.618340
C       0.647237   -2.057732   -3.035925
H       0.651989    2.132455   -0.261618
H      -0.917501    1.685442   -0.941685
H      -0.733200    1.852900    0.809582
H       0.815433   -0.120895    0.863231
H      -0.759252   -0.557406    0.214267
H       2.868064   -1.090032   -0.749264
H       2.945611   -1.762822   -3.371034
H       1.726550    0.889980   -3.291587
H       1.099448   -0.180176   -4.599570
H      -0.880743   -0.309705   -2.737392
H       0.370583   -2.330623   -4.059941
H       0.449574   -2.881312   -2.345422
