20

C      -0.122817    1.510043    0.048888
C      -0.040277   -0.015046   -0.036181
C      -1.417753   -0.579884    0.316766
C       0.729774   -0.600541   -1.277794
C       2.000404   -0.247310   -0.455468
N       1.164447   -0.551094    0.776285
C       1.022693   -2.021335    0.585243
C       0.672842   -2.085616   -0.926589
O       0.426101   -3.038151   -1.614162
H       0.812247    2.023838   -0.173813
H      -0.881771    1.881173   -0.646812
H      -0.423077    1.797494    1.061695
H      -2.183971   -0.070700   -0.275749
H      -1.525648   -1.649376    0.128707
H      -1.637264   -0.392651    1.373463
H       0.545449   -0.323752   -2.315008
H       2.881333   -0.884519   -0.569214
H       2.304063    0.795947   -0.496863
H       1.964936   -2.529531    0.808875
H       0.245172   -2.453389    1.217193
