14

O      -0.010954    0.055482   -0.180217
C       0.007661    1.238720    0.000199
C      -1.185758    2.141192    0.312406
O      -0.774710    3.460656   -0.028841
C       0.619657    3.576377   -0.018518
O       1.093987    4.142599    1.230802
C       1.790372    3.156308    1.839489
N       1.958511    2.039811    1.256026
C       1.241936    2.163977   -0.025717
H      -2.057667    1.871567   -0.287847
H      -1.451561    2.060213    1.376150
H       0.902080    4.271831   -0.808744
H       2.181142    3.412023    2.818103
H       1.895639    1.932397   -0.868103
