22

C       0.131642    1.464953    0.532080
C       0.132879   -0.023283    0.154072
C       1.009684   -0.830451    1.124013
C      -1.292983   -0.588506    0.133531
C      -2.321802   -0.211918   -0.979823
C      -1.897783    0.570640   -2.204582
O      -2.469840   -1.639996   -1.303895
C      -1.516066   -1.999313   -0.380798
N      -1.036890   -3.128865   -0.111918
H       1.151176    1.863586    0.530805
H      -0.462300    2.070633   -0.158548
H      -0.277860    1.607726    1.539201
H       0.561026   -0.127441   -0.851140
H       0.646940   -0.723426    2.153515
H       0.999880   -1.893614    0.874844
H       2.042604   -0.468438    1.097015
H      -1.734109   -0.470951    1.130294
H      -3.272096    0.164641   -0.588774
H      -0.935614    0.225205   -2.591523
H      -2.646266    0.443437   -2.992675
H      -1.823754    1.638738   -1.980289
H      -1.454828   -3.854592   -0.697362
