23

C      -0.085554    1.543088    0.153706
C       0.037198    0.024627   -0.027005
C       0.719478   -0.454056   -1.325456
C      -0.026162    0.026574   -2.581007
C       2.194038    0.003732   -1.372468
O       2.902811   -0.625447   -2.433446
C       2.851672   -2.020901   -2.316413
O       1.542558   -2.519362   -2.374799
C       0.756412   -1.998783   -1.310652
H       0.892135    2.035456    0.165358
H      -0.680867    2.001912   -0.640868
H      -0.575827    1.772546    1.104745
H       0.584624   -0.389973    0.830230
H      -0.966529   -0.419796    0.014445
H       0.008719    1.115780   -2.678015
H       0.422840   -0.404735   -3.477698
H      -1.079240   -0.274805   -2.547154
H       2.278660    1.079032   -1.548198
H       2.684968   -0.226822   -0.410517
H       3.394716   -2.436998   -3.167227
H       3.327421   -2.333664   -1.365339
H       1.160732   -2.351201   -0.345844
H      -0.246975   -2.418289   -1.432018
