17

O       0.101404   -0.032149   -0.238472
C       0.144478    1.157933   -0.317690
O       1.034628    1.899045    0.380627
C       0.954863    3.300608    0.233322
C       1.230117    3.948750   -1.104007
C       2.204238    4.128715    0.042616
C       2.072583    5.360672    0.935625
C       0.695505    5.208928    1.550133
C       0.102390    4.070280    1.187680
H      -0.514637    1.773577   -0.957078
H       1.569690    3.301575   -1.906374
H       0.596903    4.773543   -1.414747
H       3.162244    3.632573   -0.049980
H       2.853119    5.390434    1.706589
H       2.165041    6.294196    0.366264
H       0.255030    5.968862    2.185118
H      -0.878531    3.728270    1.496041
