18

C       0.241989    1.579635   -0.342109
C       0.044820    0.108237   -0.041264
C       1.202872   -0.858683   -0.082500
C       0.527888   -0.551604    1.232617
C       1.255739    0.238017    2.323658
C       0.204994    0.910360    3.225149
O      -0.099621    2.065884    3.126412
C       2.116869   -0.636467    3.122282
N       2.768944   -1.329265    3.778477
H       1.247849    1.922606   -0.082649
H       0.106831    1.764437   -1.412722
H      -0.471652    2.203001    0.204673
H      -0.903086   -0.285055   -0.399261
H       1.065378   -1.846143   -0.508035
H       2.191641   -0.440159   -0.243747
H      -0.106845   -1.334767    1.637561
H       1.860948    1.034923    1.883989
H      -0.284169    0.226674    3.951262
