16

C      -0.452518    1.354046    0.021423
O       0.927045    0.971402   -0.083585
C      -0.040955   -0.049710    0.030988
C      -0.076103   -1.098605    1.154390
C      -0.528955   -2.150245    0.099997
N      -1.977718   -2.394253    0.061017
C      -2.420791   -1.737771   -0.929763
O      -1.574939   -1.004041   -1.704065
C      -0.297483   -1.110962   -1.045803
H      -0.732591    1.835170    0.957312
H      -0.890138    1.780034   -0.879466
H       0.917474   -1.299198    1.564574
H      -0.779746   -0.923572    1.970708
H       0.019282   -3.093745    0.095554
H      -3.456043   -1.705445   -1.250628
H       0.483591   -1.248808   -1.793532
