19

C      -0.030550    1.535774   -0.037068
C       1.480316    1.886458    0.033717
C       2.127102    0.645693    0.661539
O       3.424098    0.393960    0.136566
C       3.964459   -0.821606    0.621878
C       3.003233   -1.983689    0.586908
C       1.684758   -1.817389    0.408991
C       1.163330   -0.470433    0.314855
C      -0.029786    0.023194   -0.036746
H      -0.576374    1.933994    0.830598
H      -0.519612    1.958030   -0.922159
H       1.887797    1.991952   -0.976633
H       1.688200    2.808461    0.581176
H       2.201794    0.742759    1.760671
H       4.834399   -1.037592   -0.009670
H       4.349573   -0.693979    1.652236
H       3.437905   -2.972974    0.699892
H       1.013450   -2.667856    0.328783
H      -0.903089   -0.567418   -0.293782
