18

O      -0.001907    1.428222   -0.033179
C       0.008459    0.029627    0.040067
C       0.238029   -0.712171    1.383412
C      -0.698698   -1.803791    0.780591
C      -1.362626   -0.664092   -0.052703
C       0.103899   -2.681309   -0.136524
N       0.039620   -3.944099   -0.107956
O       0.924904   -2.017656   -1.010593
C       0.931060   -0.581856   -1.019354
H       0.891076    1.755211    0.125748
H       1.256688   -0.996949    1.660370
H      -0.247934   -0.186616    2.208263
H      -1.310903   -2.411541    1.441220
H      -2.110122   -0.128659    0.536084
H      -1.759316   -0.901244   -1.042701
H       0.663998   -4.345039   -0.811071
H       0.621802   -0.245785   -2.015651
H       1.968422   -0.260561   -0.852147
