23

C       0.039936    1.525662   -0.300540
C      -0.025338    0.070788    0.183510
C      -1.420178   -0.514245    0.140691
C      -1.981701   -1.068975   -1.167019
C      -1.727304   -1.986498    0.008962
C      -0.732916   -3.111355   -0.038001
O      -2.839727   -2.317469    0.813428
C      -3.513949   -1.114255    1.171350
C      -2.463158    0.013134    1.121571
H       1.066746    1.903685   -0.276307
H      -0.328053    1.612639   -1.328308
H      -0.571014    2.182861    0.326893
H       0.645781   -0.540450   -0.431745
H       0.361171    0.010122    1.210154
H      -3.002383   -0.842526   -1.457957
H      -1.290596   -1.135746   -2.001892
H       0.142075   -2.837442   -0.632881
H      -0.401611   -3.376881    0.971049
H      -1.184099   -4.000666   -0.490128
H      -4.333069   -0.914213    0.465995
H      -3.955337   -1.256486    2.161838
H      -1.991179    0.154240    2.101357
H      -2.910767    0.967668    0.827481
