22

C      -0.177637    1.574174    0.027234
C      -0.002821    0.060551    0.029362
C      -1.340973   -0.642441   -0.175429
N       0.950861   -0.485637   -1.032391
C       2.315132   -0.007958   -0.735354
C       1.776067   -1.113225    0.078831
C       0.856223   -0.580404    1.147541
C       1.232443   -0.053214    2.502666
C       0.387225   -1.301028    2.372862
H       0.758498    2.107896    0.207659
H      -0.580973    1.905268   -0.935726
H      -0.883860    1.877509    0.807927
H      -1.790532   -0.324720   -1.121575
H      -1.207062   -1.726624   -0.210723
H      -2.038596   -0.404539    0.634538
H       3.015239   -0.254533   -1.528390
H       2.472549    0.966859   -0.282596
H       2.137510   -2.135176    0.009038
H       2.263088   -0.157304    2.827002
H       0.745329    0.852899    2.848998
H      -0.662425   -1.239095    2.641226
H       0.846930   -2.256318    2.607175
