13

O      -0.337222    0.255732    0.021197
C       0.140029    1.336294   -0.193435
C       1.616943    1.563100   -0.501325
N       1.834802    2.680808   -1.390055
C       2.398166    3.844181   -0.983602
O       2.776149    4.108980    0.142256
C       2.538600    4.865461   -2.116611
O       2.179502    4.651604   -3.245502
H      -0.466503    2.270080   -0.173428
H       2.122853    1.806824    0.441558
H       2.046061    0.637127   -0.895642
H       1.589914    2.622892   -2.368935
H       3.004024    5.814169   -1.787099
