18

N       0.026335    1.083809    0.505494
C      -0.048474   -0.015952   -0.114245
O       0.898360   -0.424281   -1.010853
C       1.441345   -1.760146   -1.008429
C       0.583649   -2.843095   -0.363688
C      -0.781594   -3.070743   -1.028852
C      -1.595335   -1.763393   -1.205745
C      -1.345653   -0.830978   -0.034566
O      -2.095190   -0.716393    0.900724
H       0.924375    1.531836    0.304227
H       1.629360   -1.993016   -2.062122
H       2.411517   -1.711567   -0.498561
H       1.168476   -3.769512   -0.392679
H       0.446793   -2.610638    0.700364
H      -0.650986   -3.548885   -2.005563
H      -1.356479   -3.765627   -0.408942
H      -1.292976   -1.261749   -2.130345
H      -2.664645   -1.977488   -1.253242
