19

C      -0.784942    1.241530    0.395095
N      -0.208904   -0.094194    0.297695
C       1.030874   -0.250796   -0.446156
C       1.010623   -0.411423    1.038741
C       1.712435    0.572773    1.943876
O       0.983993    0.786417    3.164062
C       3.136856    0.125731    2.292228
O       3.723060    1.006722    3.223667
H      -0.054384    2.061089    0.316499
H      -1.512176    1.362963   -0.413525
H      -1.305288    1.341061    1.351320
H       1.101594   -1.118402   -1.096891
H       1.508029    0.648823   -0.836174
H       1.007277   -1.428997    1.436965
H       1.769155    1.563011    1.482960
H       0.720698   -0.077537    3.503402
H       3.104289   -0.909781    2.679279
H       3.764592    0.119896    1.394830
H       3.019701    1.211133    3.854477
