15

C      -0.001011    1.545346    0.071904
C       1.524575    1.539825   -0.025448
C       2.073772    0.472413    0.901744
O       1.289634    0.041501    1.994683
C       0.120221   -0.579271    1.441467
C       0.028790   -0.018506    0.023937
C       1.521630    0.052535   -0.412685
H      -0.452071    2.004677    0.958580
H      -0.459692    1.965642   -0.826354
H       2.148978    2.339746   -0.407805
H       3.138047    0.458447    1.103576
H       0.233567   -1.674693    1.439799
H      -0.737044   -0.313567    2.069095
H      -0.692618   -0.514147   -0.624161
H       2.025061   -0.497765   -1.196070
