15

O       0.098687   -0.018424   -0.018520
C       0.013529    1.162339    0.095314
O       1.121265    1.962149   -0.093880
C       0.974733    3.315241   -0.032293
N      -0.127561    3.938900    0.046562
C       0.164231    5.384539    0.029964
C       1.685600    5.526295   -0.006520
N       2.325108    4.938591    1.185811
C       2.217109    4.140583   -0.067542
H      -0.880716    1.742128    0.355120
H      -0.308390    5.832472   -0.851655
H      -0.268956    5.855978    0.917877
H       2.161701    6.355182   -0.517770
H       3.279309    5.289136    1.252594
H       3.104376    3.819516   -0.598501
