13

O       0.081425    1.319830    0.227392
C       0.069876   -0.012361   -0.007978
C       0.083463   -0.766074   -1.153276
C       0.057336   -2.138081   -0.704830
C       0.030651   -2.104144    0.667854
N       0.037478   -0.822255    1.127674
O       0.004321   -3.297887    1.245690
N       0.013826   -4.243839    0.169398
C       0.044288   -3.536758   -0.943025
H       0.105787    1.780622   -0.617082
H       0.108175   -0.384894   -2.161352
H       0.022978   -0.488576    2.075573
H       0.055874   -4.083021   -1.876285
