15

N      -0.146491    1.335590    0.004769
C      -0.056919   -0.039755   -0.003889
N      -1.067983   -0.881540   -0.123660
C      -0.464723   -2.105056    0.013599
C      -1.229821   -3.384324   -0.078656
C      -1.865227   -3.584327   -1.449856
O      -1.948928   -4.648289   -2.003724
N       0.840819   -2.072223    0.196646
N       1.091710   -0.724370    0.187761
H       0.613611    1.825045   -0.446208
H      -1.047502    1.651069   -0.326662
H      -0.595008   -4.240411    0.154240
H      -2.058404   -3.358062    0.643582
H      -2.270887   -2.654019   -1.903256
H       2.020180   -0.386096    0.374725
