15

O       0.006160    1.351747    0.488263
C       0.013145    0.074272   -0.130132
C      -1.371767   -0.489902   -0.042341
C      -1.754922   -1.809723    0.059283
O      -3.120081   -1.894952    0.065220
C      -3.592332   -0.638509   -0.024871
C      -2.576918    0.268300   -0.097150
C      -0.985325   -3.035393    0.164501
O      -1.445029   -4.154306    0.230833
H       0.861449    1.762902    0.331439
H       0.304060    0.154094   -1.190580
H       0.734470   -0.603414    0.349428
H      -4.666361   -0.540369   -0.022137
H      -2.659335    1.340532   -0.161662
H       0.112231   -2.856175    0.182619
