18

O      -0.033467    1.441786    0.235010
C       0.100857    0.078998   -0.133856
C      -1.254537   -0.601955   -0.091798
C      -1.475907   -2.107020    0.125979
C      -1.083748   -1.903951    1.625178
C      -1.994002   -2.753962    2.485573
C      -3.178375   -2.628310    1.885785
C      -2.868801   -1.716294    0.719896
N      -1.918075   -0.617350    1.297715
H      -0.596235    1.452927    1.019532
H       0.494870    0.065191   -1.156377
H       0.837180   -0.435691    0.501522
H      -1.913528   -0.128168   -0.828809
H      -1.235292   -2.955803   -0.526816
H      -0.053051   -1.743665    1.934047
H      -1.714484   -3.291113    3.380257
H      -4.145328   -3.032562    2.147225
H      -3.665742   -1.345628    0.074373
