19

C       0.081102    1.632050    0.072116
C       0.048988    0.120445    0.043431
C       1.333861   -0.689969   -0.136630
C       2.610286   -0.058847   -0.308727
C       3.690165    0.425487   -0.525692
C       0.566802   -0.724995    1.181955
C       1.052211   -0.166033    2.484617
C       2.430114   -0.320076    2.976379
O       1.950126    0.939064    2.496892
H       0.976296    2.004342    0.570742
H       0.064189    2.031731   -0.947313
H      -0.794190    2.026292    0.599748
H      -0.806353   -0.296686   -0.482378
H       1.226852   -1.595264   -0.728987
H       4.639658    0.870818   -0.690949
H       0.029046   -1.657338    1.342615
H       0.262757   -0.091023    3.236475
H       2.618567   -0.366626    4.047919
H       3.170122   -0.798519    2.339281
