17

C      -0.179508    1.368522    0.341139
N       0.023304   -0.026999   -0.008588
C      -1.051272   -0.743269   -0.682550
C      -1.054723   -2.215786   -0.339290
N      -2.143032   -2.847023   -0.219941
O       0.160053   -2.796181   -0.167200
C       1.326495   -2.017442   -0.452784
C       1.268917   -0.575663    0.044603
O       2.270906   -0.001193    0.428427
H       0.726843    1.724983    0.829505
H      -0.367908    1.979534   -0.550899
H      -1.032734    1.469036    1.019914
H      -2.012838   -0.333648   -0.373132
H      -0.985600   -0.623098   -1.776377
H      -1.962270   -3.833287   -0.021914
H       2.160549   -2.512548    0.042937
H       1.519784   -2.016583   -1.535090
