17

O       0.216193    0.957200    0.741697
C      -0.195211    0.406000   -0.511574
C      -1.483307   -0.352385   -0.314010
O      -2.489256    0.402374    0.290356
C      -2.009307   -1.379862   -1.279916
O      -1.096041   -1.866365   -2.241458
C      -0.413440   -2.926458   -1.594243
O      -0.301368   -2.561018   -0.227640
C      -1.482757   -1.839117    0.053999
H       0.559294    0.229955    1.273071
H      -0.370971    1.262234   -1.169722
H       0.578958   -0.224353   -0.955811
H      -2.043711    0.897115    0.992801
H      -3.057400   -1.384630   -1.560954
H      -0.980388   -3.866858   -1.693120
H       0.586052   -3.026003   -2.024558
H      -2.106670   -2.216320    0.857183
