16

C       0.119400    1.508608   -0.742286
O      -0.202530    0.135716   -0.790819
C       0.910653   -0.731257   -0.967507
C       1.716576   -0.942473    0.315001
C       0.414532   -2.082708   -1.513285
N      -0.891487   -2.104787   -1.872252
O       1.174036   -3.027251   -1.623123
H       0.725856    1.763173    0.137455
H       0.663715    1.826847   -1.644502
H      -0.823039    2.058643   -0.685537
H       1.571745   -0.319452   -1.748160
H       2.217790   -0.023178    0.629057
H       1.057718   -1.275633    1.122547
H       2.469272   -1.712269    0.136262
H      -1.468499   -1.300407   -1.696585
H      -1.287676   -2.965814   -2.208913
