17

O      -0.003867    1.369530    0.234162
C      -0.020615   -0.017551    0.029506
C      -1.475684   -0.535543   -0.002890
C      -1.552084   -2.053380   -0.249211
O      -0.316028   -2.670497    0.128151
C       0.593976   -2.796000   -0.901466
O       0.851633   -1.611325   -1.686442
C       0.721602   -0.337727   -1.272409
O       1.144585    0.551812   -1.968924
H       0.418325    1.740910   -0.556769
H       0.505052   -0.517818    0.852624
H      -1.922289   -0.272417    0.959742
H      -2.029321    0.011525   -0.772451
H      -2.327305   -2.519077    0.363702
H      -1.771770   -2.279527   -1.300242
H       1.537048   -3.121416   -0.452394
H       0.261870   -3.517236   -1.660522
