23

C       0.059892    1.551807   -0.092913
C       0.043830    0.025781   -0.057345
O       0.806950   -0.483665    1.033685
C      -1.389731   -0.544633   -0.061390
O      -2.100199   -0.078179   -1.210617
C      -1.440492   -2.064717    0.030101
C      -1.179895   -2.784264    1.383554
C      -2.331728   -3.767106    1.042233
C      -2.839668   -2.742737   -0.008479
H       1.086776    1.922414   -0.151802
H      -0.510336    1.923339   -0.947023
H      -0.400348    1.960560    0.816474
H       0.554253   -0.361489   -0.951102
H       0.475337   -0.072090    1.839370
H      -1.939092   -0.118363    0.791696
H      -1.745080   -0.540767   -1.978194
H      -0.791272   -2.491962   -0.747233
H      -0.181531   -3.187630    1.556375
H      -1.441831   -2.139446    2.229085
H      -1.958307   -4.681152    0.571008
H      -3.015023   -4.049776    1.846593
H      -3.606161   -2.079745    0.404872
H      -3.198673   -3.124088   -0.967256
