18

C      -0.388751    1.337683    0.129592
C       0.082029   -0.108652    0.049074
C       0.920533   -0.574547   -1.168215
O       2.031507   -0.922626   -0.268650
C       1.342868   -0.467580    0.836595
O       1.733874   -0.412676    1.956520
C       0.439362   -1.752589   -1.969253
C       1.386795   -2.790148   -2.439252
N       0.399913   -3.098139   -1.384252
H       0.418763    2.033864   -0.117643
H      -1.218631    1.516713   -0.560482
H      -0.732820    1.567733    1.141697
H      -0.732343   -0.803052    0.278186
H       1.229352    0.247008   -1.823341
H      -0.423919   -1.514837   -2.589569
H       1.217168   -3.288309   -3.389029
H       2.427534   -2.687247   -2.146757
H       0.881275   -3.088266   -0.486802
