21

C      -0.100705    1.507181   -0.022506
C      -0.018728   -0.022383   -0.013028
C      -1.383275   -0.663136   -0.240754
C       1.149279   -0.564725   -0.905366
O       1.568368    0.330329   -1.908379
C       2.043574   -0.737693    0.360036
C       0.779400   -0.552192    1.200133
C       0.593956   -0.342794    2.634118
O       0.279675   -1.602302    2.019324
H       0.869384    1.971185    0.174954
H      -0.443212    1.867913   -0.996433
H      -0.806182    1.851975    0.740914
H      -1.778630   -0.381697   -1.222952
H      -1.324944   -1.753670   -0.188638
H      -2.103553   -0.335967    0.516913
H       0.881137   -1.540882   -1.333071
H       2.287166   -0.079462   -2.399430
H       2.566669   -1.688180    0.486819
H       2.750156    0.090786    0.465537
H       1.456143   -0.351431    3.300505
H      -0.263665    0.223056    2.996989
