16

O       0.073684    1.435016   -0.033000
C       0.037455    0.027984   -0.011436
C       0.799130   -0.553138    1.179726
O       0.118889   -0.395353    2.441691
C      -1.146427   -0.854694    2.570939
O      -1.596703   -1.118348    3.651300
C      -1.963311   -0.942254    1.309756
N      -2.309857    0.382761    0.742900
C      -1.404646   -0.497217    0.003245
H      -0.698153    1.723638    0.477029
H       0.542498   -0.322964   -0.919475
H       0.998584   -1.620714    1.016960
H       1.749041   -0.031113    1.304308
H      -2.739708   -1.698799    1.345397
H      -3.249375    0.367213    0.357859
H      -1.776223   -0.975529   -0.897869
