23

C      -0.009634    1.602817   -0.113663
C       0.029429    0.080424    0.066121
C       0.607618   -0.621746   -1.162830
O      -0.234710   -0.337457   -2.272934
C       0.823366   -0.301991    1.308420
C       0.212690   -0.017591    2.696899
C       0.431956   -1.525805    2.948074
C      -0.749808   -2.382816    3.351254
O       0.822724   -1.728665    1.566816
H       1.003755    2.012601   -0.204958
H      -0.559215    1.860694   -1.020963
H      -0.494068    2.095020    0.735827
H      -0.995339   -0.292484    0.195296
H       1.634836   -0.260201   -1.342719
H       0.661797   -1.701104   -0.966618
H       0.107868   -0.810268   -3.036455
H       1.858012    0.064638    1.213672
H       0.753695    0.673826    3.344177
H      -0.841585    0.269985    2.659749
H       1.285198   -1.723639    3.613362
H      -1.611263   -2.183387    2.706555
H      -0.498295   -3.445114    3.269538
H      -1.033682   -2.178055    4.389594
