17

O       0.326837    0.833794    0.959975
C       0.045381   -0.267541    0.100035
C      -1.459894   -0.440154   -0.059538
O      -2.010184    0.713851   -0.674444
C      -2.213683    0.587426   -2.060679
C      -0.984236    0.392762   -2.957353
O      -1.160781    0.416162   -4.159943
C       0.386607    0.213063   -2.420880
C       0.814258   -0.076890   -1.184787
H      -0.143616    1.586761    0.578526
H       0.444965   -1.149387    0.617237
H      -1.701867   -1.348947   -0.628388
H      -1.906491   -0.522449    0.936590
H      -2.903301   -0.242081   -2.284977
H      -2.701822    1.507912   -2.394157
H       1.125503    0.314975   -3.212331
H       1.890950   -0.146787   -1.041138
