16

C      -0.084900    1.462134   -0.097380
N       0.057611    0.016143    0.002634
C       1.410763   -0.528174   -0.140547
C       0.721313   -0.516787    1.169723
C       1.120278    0.182630    2.472194
O       0.628644   -0.937747    3.236530
C       0.191277   -1.642045    2.050525
H       0.775112    2.022698    0.305503
H      -0.206165    1.735752   -1.149720
H      -0.983460    1.778025    0.441992
H       1.496581   -1.444882   -0.718924
H       2.233866    0.174738   -0.273517
H       2.193319    0.349749    2.628912
H       0.576786    1.109410    2.701000
H      -0.897471   -1.774270    2.019285
H       0.682595   -2.617577    1.947510
