22

C       0.428457    1.522511   -0.109220
C      -0.201609    0.145989   -0.076058
C       0.470546   -1.013357   -0.777438
C       0.442929   -0.934829    0.737110
O      -1.605597    0.155910    0.015328
C      -2.329027    0.504523   -1.158100
C      -2.765221   -0.696279   -1.964525
C      -3.171607   -0.524770   -3.380823
N      -1.934100   -1.250868   -3.046240
H       1.519487    1.447906   -0.094496
H       0.150615    2.082287   -1.009423
H       0.109785    2.104298    0.761825
H      -0.158249   -1.758808   -1.248258
H       1.411627   -0.826962   -1.285288
H       1.360564   -0.705308    1.267736
H      -0.226755   -1.612990    1.252728
H      -3.218583    1.042997   -0.807875
H      -1.759215    1.194155   -1.797839
H      -3.266404   -1.459937   -1.373226
H      -3.967615   -1.133781   -3.799066
H      -3.088122    0.467927   -3.817956
H      -1.131810   -0.645157   -3.203717
