23

C       0.174008    1.553463   -0.103510
C       0.003325    0.041617    0.068760
C      -1.457345   -0.451599    0.120590
C      -2.235911    0.228211    1.258220
O      -2.027674   -0.084659   -1.140738
C      -1.434727   -1.988652    0.223334
C      -1.998794   -2.783955    1.387621
C      -2.679405   -2.806975    0.044139
O      -3.873072   -2.089573   -0.152764
H       1.226277    1.801027   -0.275269
H      -0.405133    1.906616   -0.960288
H      -0.151098    2.109651    0.780933
H       0.482571   -0.467428   -0.775823
H       0.515880   -0.300488    0.976254
H      -2.288814    1.302713    1.070342
H      -3.257817   -0.153797    1.311144
H      -1.753938    0.070233    2.228635
H      -2.921752   -0.447443   -1.152891
H      -0.558150   -2.421944   -0.250215
H      -1.470784   -3.671195    1.720968
H      -2.496525   -2.232788    2.177054
H      -2.608219   -3.713442   -0.555349
H      -4.595172   -2.564430    0.270885
