22

C      -0.087503    1.552464   -0.151951
C      -0.005109    0.033881    0.049474
C       0.789226   -0.460655    1.278404
C       2.234293    0.070385    1.269032
C       0.076005   -0.048086    2.573088
O       0.677683   -0.637346    3.736730
C       1.095799   -1.917824    3.592384
N       1.172912   -2.621188    2.545797
C       0.800829   -2.006592    1.274199
H       0.899777    1.999432   -0.299215
H      -0.686350    1.783304   -1.038282
H      -0.558916    2.057498    0.697539
H      -1.023523   -0.373038    0.109051
H       0.445138   -0.418700   -0.844057
H       2.268886    1.155404    1.405703
H       2.829309   -0.381763    2.066638
H       2.721313   -0.165231    0.316748
H       0.116129    1.029884    2.744536
H      -0.978587   -0.353639    2.538946
H       1.399572   -2.317514    4.558516
H      -0.187401   -2.389635    0.984143
H       1.499737   -2.369609    0.510687
