19

O       0.024801    1.470721   -0.006911
C       0.022889    0.026891    0.030568
C      -1.453046   -0.414362    0.209382
O      -2.002632   -1.213197   -0.822224
C      -2.214798   -0.645342   -2.073675
C      -1.884639    0.764406   -2.433854
C      -1.012555   -0.371863   -2.975956
C       0.325181   -0.656229   -2.424451
C       0.754725   -0.557859   -1.158389
H       0.867796    1.744997   -0.383906
H       0.563227   -0.280583    0.937303
H      -1.533030   -1.047390    1.096808
H      -2.055131    0.487263    0.380526
H      -3.082077   -1.102026   -2.540496
H      -2.539214    1.261662   -3.141651
H      -1.429064    1.411897   -1.694446
H      -1.131606   -0.609529   -4.027296
H       1.035478   -1.048051   -3.149869
H       1.781302   -0.855047   -0.957850
