20

C      -0.337495    1.392409   -0.036043
C       0.010534   -0.092612    0.017621
C       1.182193   -0.520234   -0.922309
C       2.123838   -0.473465    0.293569
C       0.898365   -0.506373    1.233324
O       3.033271   -1.574795    0.349455
C       3.996725   -1.486531    1.301170
N       4.759837   -2.621591    1.294156
O       4.138245   -0.556029    2.060046
H       0.552788    2.020766    0.080825
H      -0.804574    1.654055   -0.991915
H      -1.036578    1.660472    0.763502
H      -0.900275   -0.685274   -0.101121
H       1.066669   -1.547689   -1.276974
H       1.419020    0.126698   -1.771057
H       2.690413    0.454452    0.381672
H       0.919167    0.155122    2.101920
H       0.693418   -1.528302    1.563539
H       4.717098   -3.226994    0.492079
H       5.624894   -2.574795    1.804318
