18

C       0.108282    1.562548   -0.101983
C       0.011956    0.050428    0.033607
O       0.480982   -0.512270   -1.209490
C       0.869431   -1.813014   -1.208346
N       1.243101   -2.524772   -0.231462
C       1.319995   -1.892784    1.049934
C       2.246862   -0.689275    1.217110
C       0.753304   -0.518029    1.235985
O       0.117557   -0.257853    2.455460
H       1.151208    1.875800   -0.207317
H      -0.447666    1.902999   -0.979177
H      -0.319172    2.045389    0.781815
H      -1.039626   -0.244621    0.153866
H       0.857511   -2.212071   -2.220253
H       1.257574   -2.573997    1.890985
H       2.764343   -0.594245    2.165449
H       2.809016   -0.371216    0.345438
H       0.407781    0.605479    2.769523
