19

C      -0.045392    1.591939    0.007346
C       0.063664    0.066305   -0.062907
C      -1.090143   -0.600778    0.688355
C       0.477214   -0.753964   -1.259258
C       1.792866   -0.326029   -1.938884
C       2.559959    0.784296   -1.324421
N       2.594051   -0.539907   -0.680683
C       1.286145   -0.841812    0.021350
H       0.175310    2.077007   -0.944889
H      -1.071338    1.868656    0.272024
H       0.608303    2.020118    0.774877
H      -2.050704   -0.319461    0.242432
H      -1.017272   -1.692142    0.666461
H      -1.101664   -0.283188    1.736859
H      -0.168808   -1.499017   -1.708520
H       2.115065   -0.784680   -2.868981
H       3.509963    1.012841   -1.802427
H       2.104066    1.628064   -0.832525
H       1.334680   -1.628838    0.764744
