17

C      -0.009579    1.516229   -0.011702
C       1.516179    1.540395   -0.111366
N       2.016925    0.828436    1.093142
C       1.584325    0.058449   -0.100127
C       0.053544   -0.057083    0.025278
C      -0.523968   -0.821389    1.236907
O      -1.356400   -1.852095    0.642590
C      -1.290855   -1.629660   -0.687190
N      -0.573789   -0.686828   -1.142695
H      -0.438975    2.011004    0.863918
H      -0.509225    1.847346   -0.923274
H       2.138598    2.260167   -0.626827
H       3.035583    0.868257    1.065496
H       2.246696   -0.629873   -0.610403
H       0.243914   -1.298184    1.849541
H      -1.159314   -0.203347    1.876871
H      -1.885684   -2.310757   -1.286242
