16

C       0.010894    1.464312    0.300550
C       0.055111   -0.011774    0.048064
C      -0.861063   -1.015083    0.719851
C       0.620703   -1.156831    0.942042
N       1.298503   -1.717039   -0.226253
C       0.759717   -0.745348   -1.095322
O       0.847767   -0.595622   -2.278611
C       1.303312   -0.923564    2.224064
O       0.759435   -0.443540    3.192170
H       0.959854    1.941155    0.039342
H      -0.777302    1.931196   -0.298955
H      -0.198748    1.665406    1.355251
H      -1.421602   -0.621241    1.562510
H      -1.366379   -1.780164    0.138004
H       1.301705   -2.706728   -0.449071
H       2.380325   -1.195059    2.223865
