16

C      -0.371247    1.499558    0.012111
C      -0.091191    0.022755   -0.010884
N       0.058473   -0.534709   -1.167913
C       0.255387   -1.847047   -1.475614
C       0.077340   -2.967318   -0.719219
C      -0.213420   -3.024353    0.673362
C      -0.217511   -2.007177    1.573423
C       0.026860   -0.583350    1.365369
O       0.221740    0.162443    2.317717
H       0.459255    2.025245    0.494992
H      -0.511737    1.867949   -1.003517
H      -1.252346    1.715427    0.625864
H       0.523416   -1.994142   -2.520413
H       0.166837   -3.918455   -1.236429
H      -0.405706   -4.019086    1.069046
H      -0.407332   -2.241813    2.617476
