19

O      -0.353985    1.343104   -0.371465
C      -0.181973   -0.037111   -0.226061
C      -0.289171   -0.659897    1.145579
C      -1.406868   -0.803078    0.141564
C      -2.835890   -0.240969    0.240624
C      -3.351778   -1.503987   -0.504317
C      -3.202867   -1.469093   -2.038663
O      -1.863754   -2.020319   -1.982163
C      -1.906830   -2.079139   -0.543316
H       0.448576    1.777243   -0.064353
H       0.492801   -0.498081   -0.947192
H       0.320379   -1.529882    1.372222
H      -0.462172    0.011699    1.981314
H      -3.206667   -0.169030    1.267009
H      -3.004068    0.716126   -0.260004
H      -4.212430   -2.030241   -0.094752
H      -3.878822   -2.136084   -2.587630
H      -3.226694   -0.474176   -2.501226
H      -1.579324   -3.047373   -0.153495
