11

O      -0.096515   -0.017668   -0.001006
C      -0.010105    1.189303    0.007816
C       1.236220    1.908604   -0.000742
C       2.273163    2.532063   -0.007630
C       3.484113    3.238388   -0.015227
C       4.776902    2.782491   -0.033557
O       5.610046    3.796455   -0.034732
N       4.762991    5.003581   -0.014853
N       3.579966    4.627281   -0.004961
H      -0.905990    1.841002    0.023454
H       5.185293    1.784358   -0.046516
