17

C      -0.220843    1.440565    0.006388
C       1.223319    1.012839   -0.023822
C       0.135657   -0.034421   -0.000413
C      -0.095594   -0.942705    1.219163
C      -0.873250   -2.172467    0.671019
C      -0.714812   -2.050638   -0.827813
C      -0.175325   -0.883973   -1.180114
H      -0.612296    1.857767    0.928826
H      -0.650052    1.869091   -0.893549
H       1.782824    1.152880   -0.943346
H       1.813448    1.142522    0.878251
H       0.868533   -1.265635    1.626632
H      -0.631408   -0.433586    2.025028
H      -0.480592   -3.117811    1.062850
H      -1.935358   -2.145700    0.951656
H      -1.044142   -2.821508   -1.515424
H       0.007909   -0.551189   -2.196552
