17

N       0.425328    1.323285   -0.518811
C       0.246356   -0.003041   -0.171583
N      -0.958556   -0.504180    0.107288
N      -0.702935   -1.800636    0.313429
N       0.553697   -2.180423    0.187285
C       1.204737   -1.052307   -0.115920
C       2.696096   -1.059066   -0.283172
C       3.247311   -0.249052   -1.455775
O       3.279560    1.131015   -1.078565
H       1.386422    1.634022   -0.452860
H      -0.247892    1.949357   -0.102499
H      -1.435825   -2.451524    0.536633
H       3.191893   -0.684673    0.623163
H       3.004476   -2.102558   -0.396873
H       4.266186   -0.592513   -1.684449
H       2.627781   -0.398268   -2.350445
H       3.483025    1.652119   -1.861334
