15

C       0.002603    1.442932    0.015950
N      -0.032376   -0.007616   -0.003655
C      -0.007989   -0.757051   -1.170280
C       0.034231   -2.072233   -0.756338
N       0.056545   -3.392877   -1.093031
N       0.077594   -4.170147    0.041798
N       0.061304   -3.416262    1.085159
C       0.035301   -2.104530    0.663577
C      -0.004865   -0.793834    1.117158
H       1.021570    1.820378   -0.122632
H      -0.631802    1.839093   -0.780747
H      -0.379269    1.800501    0.973739
H      -0.020317   -0.279510   -2.134254
H       0.076695   -3.850836   -1.986810
H      -0.015404   -0.360236    2.102449
