21

C       0.016854    1.572804    0.193112
C      -0.019797    0.073799   -0.003920
C      -1.193096   -0.576502   -0.046551
C      -1.393316   -2.054427   -0.237295
C      -0.532225   -2.920881    0.690049
O      -1.159887   -4.201637    0.740699
C       0.911470   -3.071289    0.205049
C       1.690210   -1.828221   -0.116134
C       1.300434   -0.547224   -0.183654
H       0.510239    2.069086   -0.652289
H      -0.987545    1.991150    0.292763
H       0.588557    1.842022    1.089965
H      -2.098519    0.012434    0.079351
H      -2.438143   -2.310773   -0.040550
H      -1.195782   -2.345778   -1.278721
H      -0.535544   -2.460021    1.689522
H      -0.632071   -4.770346    1.310478
H       1.475776   -3.639358    0.961625
H       0.896217   -3.721503   -0.682523
H       2.741578   -2.022389   -0.323045
H       2.088002    0.170180   -0.412319
