19

C      -0.609405    1.369098   -0.039776
C       0.047203   -0.003064   -0.078175
C       1.379176   -0.183862   -0.873904
C       2.026539   -0.845489    0.363895
O       2.794614    0.056868    1.164207
C       1.653273    0.374264    2.000869
C       0.724087   -0.564208    1.213120
C       0.014182   -1.633741    1.974801
O       0.128883   -1.832644    3.159630
H       0.097816    2.148566    0.260803
H      -0.990052    1.637641   -1.030928
H      -1.452642    1.390499    0.659187
H      -0.687012   -0.743045   -0.419387
H       1.301637   -0.818658   -1.759865
H       1.886326    0.745570   -1.144499
H       2.496735   -1.826688    0.257712
H       1.806342    0.044134    3.032789
H       1.410350    1.442113    1.985747
H      -0.645346   -2.280964    1.349888
