13

N       0.002504    1.271327    0.056731
C      -0.024045   -0.073508    0.016421
N      -1.134270   -0.759341    0.016208
C      -0.725296   -2.087075   -0.001283
N      -1.307969   -3.248662   -0.011166
O      -0.238330   -4.149110   -0.032779
N       0.994824   -3.503924   -0.035666
C       0.688985   -2.250655   -0.015936
C       1.293986   -0.884560   -0.003963
H       0.858677    1.780794   -0.065201
H      -0.868672    1.773401    0.000758
H       1.894403   -0.656342   -0.890631
H       1.905987   -0.676144    0.879309
