13

O      -0.899579    1.165560    0.636852
C       0.138957    0.885634    0.112593
C       1.351696    1.825129    0.036766
O       2.531911    1.102695   -0.396070
C       2.670894    1.811539   -1.643941
C       1.416721    2.622754   -1.331751
O       0.765493    3.464847   -1.848989
C       1.535140    2.639435    1.214441
C       1.692022    3.333128    2.182420
H       0.331351   -0.079615   -0.403155
H       3.595200    2.399095   -1.702034
H       2.594624    1.157489   -2.521300
H       1.822455    3.939668    3.045044
