16

C      -0.070368    1.356920    0.003850
O      -0.002936   -0.072903   -0.049680
C       0.636011   -0.564711   -1.129394
O       1.125084    0.115382   -2.002223
N       0.649454   -1.949791   -1.091712
C       0.032762   -2.698273    0.003777
C       1.273895   -2.622183   -2.138870
N       1.330058   -3.891106   -2.180297
H       0.932465    1.789874    0.027029
H      -0.604669    1.750732   -0.863968
H      -0.608802    1.589643    0.922489
H      -1.035504   -2.478938    0.066096
H       0.183340   -3.755233   -0.208967
H       0.499329   -2.439579    0.956965
H       1.680767   -1.923891   -2.870724
H       1.823812   -4.189584   -3.018407
