22

C      -0.038945    1.546510   -0.138711
C       0.032647    0.037145    0.034393
O       0.637452   -0.472180   -1.176939
C       1.040091   -1.763772   -1.147586
N       1.111451   -2.555077   -0.165315
C       0.755216   -2.036139    1.151182
C       0.784012   -0.494483    1.276889
C       2.240461    0.001949    1.318762
C       0.051079   -0.084659    2.563039
H       0.958422    1.987259   -0.210141
H      -0.579953    1.784856   -1.058363
H      -0.568517    2.007734    0.698534
H      -0.990920   -0.364443    0.070374
H       1.334387   -2.083971   -2.146016
H      -0.242988   -2.414418    1.412689
H       1.443682   -2.476035    1.883010
H       2.790005   -0.270204    0.413986
H       2.293679    1.088667    1.432883
H       2.762400   -0.443142    2.172104
H       0.481435   -0.605339    3.425546
H       0.131103    0.989474    2.756413
H      -1.012955   -0.343319    2.518255
