15

C      -0.004675    1.401761    0.012111
N       0.253052   -0.020667   -0.096084
C       0.597146   -0.626102    0.942574
O       0.826877   -1.983357    0.853635
C       1.276475   -2.657682    1.916380
C       1.396930   -4.002764    2.088263
C       1.947726   -4.091640    3.391068
N       2.141872   -2.925124    3.955885
O       1.706939   -1.987565    2.989701
H       0.654009    1.938780   -0.678450
H      -1.033354    1.604988   -0.303754
H       0.139357    1.809347    1.024261
H       0.736167   -0.210413    1.942717
H       1.131313   -4.783832    1.398699
H       2.211675   -4.981046    3.946660
