17

C      -0.344199    1.535829    0.022445
C       0.043105    0.067143    0.054717
C       0.834446   -0.431514   -1.190992
N       2.155837   -0.825371   -0.691535
C       2.112443   -0.642751    0.560801
N       3.100511   -0.866289    1.504827
C       4.379551   -1.358417    1.304862
O       4.867627   -1.678720    0.256531
O       0.978070   -0.164216    1.146771
H       0.533205    2.160344   -0.173461
H      -1.073793    1.709672   -0.775249
H      -0.790931    1.848136    0.970435
H      -0.833363   -0.555070    0.260309
H       0.347674   -1.283692   -1.677590
H       0.935930    0.357724   -1.945492
H       2.833581   -0.642295    2.451504
H       4.911722   -1.419080    2.275570
