20

C       0.216287    1.533674   -0.153408
C       0.134534    0.024343    0.009420
O       0.610848   -0.542735   -1.228587
C       0.927813   -1.869752   -1.317799
N       0.808085   -2.503991   -2.407579
C       1.538520   -2.512270   -0.096793
C       0.888026   -2.035470    1.205602
C       0.879745   -0.504439    1.237437
O       2.195812    0.032828    1.222017
H       1.258314    1.846829   -0.235519
H      -0.322855    1.841585   -1.052492
H      -0.232614    2.032303    0.711057
H      -0.917102   -0.278266    0.126387
H       0.413724   -1.887092   -3.121811
H       1.487071   -3.594536   -0.218549
H       2.596795   -2.226396   -0.080540
H      -0.143356   -2.401255    1.283219
H       1.428365   -2.432369    2.073297
H       0.327758   -0.148853    2.122233
H       2.663546   -0.298101    1.995131
