19

C      -0.070618    1.465102    0.115869
O       1.145940    0.712027    0.066905
C      -0.099079    0.006694    0.004267
C      -0.423821   -0.934163    1.156295
O      -0.196605   -2.243362    0.647986
C      -0.497793   -2.244387   -0.738390
C      -2.008093   -2.281413   -1.119729
C      -1.894653   -0.840550   -1.697467
C      -0.399587   -0.774751   -1.258969
H      -0.287104    1.942216    1.071835
H      -0.280144    2.078386   -0.760020
H       0.230398   -0.771906    2.016020
H      -1.470920   -0.809459    1.477475
H       0.127724   -3.005461   -1.208261
H      -2.275565   -3.052512   -1.845693
H      -2.663879   -2.385763   -0.252063
H      -2.026261   -0.783994   -2.779913
H      -2.545681   -0.091823   -1.237814
H       0.328216   -0.547167   -2.037898
