18

C      -0.014250    1.403836    0.224807
N       1.432339    1.563827   -0.214787
C       2.314878    0.339177    0.082264
C       2.369560   -0.626895    1.223694
C       1.743649   -1.809696    1.294572
C       0.654289   -2.278760    0.325865
C      -0.347093   -1.145773    0.294581
C      -0.005275   -0.012044   -0.304137
C       1.316496    0.273359   -0.993296
H      -0.206272    1.534637    1.295205
H      -0.589108    2.140741   -0.345264
H       3.313879    0.646797   -0.225070
H       3.094365   -0.382078    1.997110
H       1.974290   -2.466469    2.129943
H       1.080975   -2.455361   -0.668376
H       0.221496   -3.223310    0.663830
H      -1.135435   -1.150170    1.044389
H       1.530725    0.219726   -2.056965
