21

C      -0.007914    1.155298    0.646445
O      -0.092853    0.115077   -0.313139
C      -1.321673   -0.601762   -0.282501
C      -1.616625   -1.139124   -1.701419
C      -1.344156   -2.617250   -1.601836
C      -1.115426   -3.029953   -0.354901
C      -0.819992   -4.414786    0.124809
C      -1.188078   -1.876739    0.629405
O      -0.069984   -1.812336    1.500090
H       0.958911    1.644260    0.500789
H      -0.805829    1.897562    0.496115
H      -0.067536    0.771315    1.672160
H      -2.115879    0.064074    0.075487
H      -2.655200   -0.936904   -1.993979
H      -0.978935   -0.628976   -2.431881
H      -1.358722   -3.265697   -2.472432
H      -0.709074   -5.118119   -0.704800
H       0.097865   -4.423713    0.722317
H      -1.619449   -4.783955    0.780831
H      -2.061059   -1.980706    1.286855
H       0.645750   -1.447985    0.961785
