18

C      -0.011634    1.477774    0.266845
C       0.155414   -0.017034    0.063366
O       1.244291   -0.535673   -0.046385
C      -1.120211   -0.836971    0.028812
C      -1.102400   -2.297547   -0.373859
C      -0.808638   -3.138916    0.822779
C      -0.614159   -2.237421    2.026101
C      -1.715461   -1.390452    1.360112
N      -2.213530   -2.651055    0.584558
H       0.962033    1.948000    0.408711
H      -0.504852    1.918353   -0.607890
H      -0.657005    1.683663    1.128520
H      -1.913959   -0.302738   -0.504495
H      -1.081325   -2.701842   -1.378881
H      -0.558201   -4.188840    0.724799
H      -0.992264   -2.713837    2.934022
H       0.366033   -1.789982    2.210643
H      -2.421766   -0.799507    1.939599
