16

O      -0.037854    1.493843    0.152056
C       0.055227    0.096213    0.099127
C      -1.342229   -0.556963    0.001372
C      -2.048116   -0.230228   -1.290065
N      -2.098768    0.923299   -1.804914
O      -2.598059   -1.348193   -1.851072
C      -2.254349   -2.530107   -1.123130
C      -1.355910   -2.076189    0.030915
O      -0.777174   -2.802939    0.791457
H      -0.587518    1.762353   -0.602601
H       0.668541   -0.249905   -0.748885
H       0.536655   -0.247987    1.018682
H      -1.937263   -0.187590    0.847025
H      -2.591103    0.919158   -2.698780
H      -3.161603   -3.014912   -0.745754
H      -1.729637   -3.230974   -1.780379
