17

C       0.142519    1.434908    0.211074
N      -0.041507    0.004639   -0.036535
C      -1.367598   -0.427567   -0.059475
C      -2.332469   -0.824203    0.996841
N      -3.425229   -0.017295    0.444780
C      -2.722716   -0.072380   -0.868552
C      -2.669579   -1.563525   -1.272805
O      -2.922604   -2.156291   -2.285151
C      -1.894483   -1.891300   -0.032605
H       1.212441    1.657091    0.238791
H      -0.331156    2.080220   -0.544640
H      -0.284807    1.687175    1.185649
H       0.467678   -0.298917   -0.858713
H      -2.176482   -0.978977    2.057551
H      -4.325479   -0.503014    0.424463
H      -2.917297    0.715660   -1.592465
H      -1.338810   -2.780036    0.231368
