14

C      -0.035622    1.444009    0.044040
C       0.019024   -0.008513    0.019189
C       0.084642   -1.213128   -0.002240
C       0.078471   -2.636070   -0.024543
C      -1.240318   -3.371104    0.012605
N       1.224328   -3.223848   -0.076578
O       1.068689   -4.612745   -0.092733
H       0.970031    1.877381    0.024394
H      -0.584862    1.835515   -0.819653
H      -0.538190    1.807088    0.947632
H      -1.341294   -4.007469   -0.872161
H      -1.277036   -4.033926    0.882838
H      -2.074474   -2.671158    0.053755
H       1.981555   -4.917387   -0.131738
