22

C      -0.172942    1.563550    0.015605
C      -0.042419    0.041501    0.026670
C      -1.316847   -0.627018   -0.485215
C       1.262645   -0.504899   -0.605343
O       1.713769   -1.051142    0.654389
C       0.520994   -0.602814    1.338483
C       0.847537    0.269842    2.526634
C       1.983989   -0.086707    3.408388
N       2.064013    1.093813    2.523880
H       0.714364    2.056526    0.420356
H      -0.327136    1.922010   -1.008559
H      -1.033817    1.889929    0.609421
H      -1.549683   -0.299249   -1.504626
H      -1.220104   -1.717585   -0.496543
H      -2.173928   -0.371830    0.148378
H       1.129664   -1.289608   -1.360399
H       1.957985    0.249998   -0.993349
H      -0.081705   -1.459270    1.675690
H      -0.020645    0.754869    2.970434
H       1.938609    0.132936    4.471076
H       2.572069   -0.959436    3.139038
H       2.612471    0.816437    1.710391
