18

C      -0.075300    1.566828   -0.219731
C      -0.115369    0.081156   -0.112902
N      -1.161617   -0.647315   -0.137233
C      -0.704722   -2.042472    0.025873
C      -1.247364   -2.930799   -1.100961
C       0.838123   -1.939131    0.067686
O       1.094630   -0.518095    0.018146
C      -1.290329   -2.530909    1.354811
O      -0.653035   -3.006626    2.257645
H       0.523395    1.867542   -1.085002
H      -1.087391    1.957062   -0.318501
H       0.399892    1.994086    0.668729
H      -0.929063   -2.534200   -2.069287
H      -0.879333   -3.957347   -1.002036
H      -2.340996   -2.947781   -1.086319
H       1.252592   -2.345581    0.992597
H       1.322605   -2.406268   -0.794424
H      -2.391289   -2.397090    1.420237
