18

O      -0.297778    1.551642    0.153317
C      -0.088043    0.162969    0.382911
C      -1.323876   -0.572164   -0.109055
C      -1.618891   -0.405888   -1.622227
C      -2.169773   -1.755111   -2.013141
C      -2.033602   -2.663893   -1.046524
C      -1.289206   -2.109374    0.144263
O       0.027118   -2.669009    0.244130
H       0.495571    2.021865    0.425200
H       0.801465   -0.199285   -0.153494
H       0.073172   -0.047838    1.451135
H      -2.183793   -0.173971    0.441621
H      -2.322057    0.410214   -1.815483
H      -0.715161   -0.163248   -2.199055
H      -2.614639   -1.943162   -2.985191
H      -2.329990   -3.705354   -1.103215
H      -1.753324   -2.359386    1.103751
H       0.379740   -2.726060   -0.650907
