19

O      -0.000189    0.065222   -0.220424
C      -0.009993    1.250236   -0.063340
C      -1.118905    2.292471    0.172355
C      -0.013097    3.178362    0.829817
C       1.084154    2.333836    0.105643
C       1.463145    2.852527   -1.262143
C       0.646672    3.446409   -2.136279
C      -0.813170    3.806459   -1.953477
C      -1.708572    2.839483   -1.146635
H      -1.927223    1.943877    0.821346
H      -0.026342    4.244642    0.603152
H       0.026374    3.042287    1.912935
H       1.967029    2.049163    0.680848
H       2.490273    2.666082   -1.562804
H       1.075745    3.750497   -3.088341
H      -0.869794    4.806430   -1.500597
H      -1.265315    3.925752   -2.944171
H      -1.982386    1.983520   -1.774180
H      -2.643801    3.364594   -0.921427
