18

O      -0.018736    0.016762    0.363676
C      -0.062103    1.188783    0.087396
C      -1.357575    1.972941   -0.068731
C      -1.344854    2.982228    1.129287
C      -0.482584    3.895970    0.220329
C      -1.208416    3.219181   -0.988357
C       0.954492    3.421296    0.115550
C       1.691633    2.616890    1.133604
N       1.113366    1.973937   -0.055090
H      -2.200446    1.294634   -0.191975
H      -2.336893    3.413543    1.281812
H      -0.953715    2.647434    2.092979
H      -0.550880    4.978106    0.346598
H      -0.651107    3.112538   -1.922243
H      -2.183512    3.670021   -1.188739
H       1.557054    4.001275   -0.583105
H       2.777148    2.653326    1.160273
H       1.223195    2.409501    2.090944
