16

N       0.279285    1.268620   -0.320492
C       0.077650   -0.115639   -0.004543
C       0.046121   -0.510230    1.490465
O       0.699190   -0.357572    2.467774
O      -1.149525   -1.198274    1.376265
C      -1.296474   -0.806287   -0.003444
C      -2.589170   -0.345808   -0.589474
C      -1.934173   -1.656664   -1.028868
O      -1.262581   -1.726989   -2.251151
H       0.318936    1.411747   -1.323053
H      -0.460136    1.853239    0.054224
H       0.818969   -0.717902   -0.538104
H      -3.487719   -0.412574    0.014502
H      -2.541407    0.498634   -1.271796
H      -2.414969   -2.575088   -0.692418
H      -1.919256   -1.805745   -2.951619
