19

C       0.012661    1.512463   -0.001485
C       0.028156   -0.002525   -0.002260
C      -1.312199   -0.731158    0.373564
C      -0.515036   -1.616177    1.325100
C       0.773784   -2.150246    0.672554
C       0.701311   -0.741737    1.211505
C       0.894232   -2.113756   -0.819346
O       1.205171   -3.029269   -1.539969
C       0.621238   -0.665003   -1.252004
H       1.021948    1.917844   -0.137375
H      -0.613107    1.899056   -0.813698
H      -0.383032    1.905021    0.941344
H      -1.981592   -0.066615    0.926886
H      -1.871487   -1.206652   -0.440048
H      -0.898268   -2.139749    2.192730
H       1.280045   -2.937157    1.217772
H       1.360722   -0.328344    1.963407
H      -0.023913   -0.626255   -2.134437
H       1.583429   -0.208706   -1.521502
