16

N      -0.112554    1.393442   -0.334309
C      -0.001586    0.028816   -0.085899
N      -1.056742   -0.784745   -0.060836
N      -0.504974   -1.985302    0.130859
N       0.812682   -2.016947    0.233938
C       1.174657   -0.738684    0.099799
C       2.582685   -0.300687    0.143050
C       3.461402   -0.701448    1.283576
N       3.658495   -1.285854   -0.046911
H       0.463858    1.962716    0.270759
H      -1.074878    1.704137   -0.298840
H      -1.061103   -2.822819    0.156442
H       2.766374    0.655494   -0.341750
H       4.253754   -0.036763    1.617871
H       3.006860   -1.311091    2.059565
H       3.235938   -2.212082   -0.076123
