12

N       0.006139    1.301980    0.009415
N       1.288088    1.777399   -0.000280
N       2.109728    0.785102   -0.013848
C       1.372153   -0.379639   -0.013323
C       0.007131   -0.053075    0.001722
N      -1.003914   -0.920749    0.006573
C      -0.574433   -2.181331   -0.004725
N       0.697444   -2.633553   -0.019583
C       1.681135   -1.739693   -0.024023
H      -0.766490    1.948701    0.020562
H      -1.344706   -2.947510   -0.001623
H       2.704651   -2.105276   -0.035992
