18

C      -0.053043    1.423788    0.174062
N       0.280867    0.024332   -0.033186
C       0.736063   -0.750355    0.997129
N       0.692255   -2.048131    1.073943
C       1.354513   -2.335042    2.270476
C       1.541540   -3.732646    2.750658
C       1.755790   -1.188138    2.863939
N       2.427565   -0.907061    4.045569
O       1.344910   -0.126670    2.022042
H       0.806400    1.944890    0.600892
H      -0.280082    1.876040   -0.793731
H      -0.912370    1.575176    0.843703
H      -0.322032   -0.495844   -0.652550
H       2.106441   -4.323430    2.021185
H       2.079135   -3.738582    3.701279
H       0.575625   -4.231399    2.887364
H       3.307736   -0.422651    3.900692
H       1.873386   -0.371045    4.706023
