14

N       0.272197    1.292278   -0.108995
C      -0.022326   -0.053125   -0.022892
C      -1.128835   -0.791970    0.264355
N      -0.768050   -2.137182    0.295307
C       0.491918   -2.149831    0.033740
C       1.407575   -3.326037   -0.064631
C       2.034588   -3.461778   -1.383665
N       2.534224   -3.563099   -2.419862
O       1.029430   -0.905805   -0.169866
H       0.982790    1.505568   -0.797536
H      -0.546860    1.869299   -0.238964
H      -2.138748   -0.463929    0.444780
H       2.202805   -3.267779    0.689278
H       0.813705   -4.218177    0.150238
