18

C       0.041470    1.554361    0.048228
C      -0.017557    0.055285    0.041002
C      -0.936003   -0.758123    0.914279
C       0.562440   -0.941620    1.026675
C       1.220091   -1.740161   -0.126291
C       0.323193   -2.203785   -1.238986
O      -0.952549   -2.778605   -1.140533
C       0.606213   -0.742968   -1.144060
H       1.042798    1.918994   -0.211687
H      -0.664064    1.985176   -0.673867
H      -0.212560    1.950782    1.036678
H      -1.354108   -0.186822    1.740079
H      -1.582914   -1.523572    0.513007
H       1.096927   -0.734101    1.945391
H       2.248120   -2.078186   -0.063692
H       0.918029   -2.649778   -2.041802
H      -0.848727   -3.641259   -0.723873
H       1.104381   -0.220117   -1.952837
