20

C      -0.013485    1.555534    0.157677
N       1.489005    1.256147    0.040767
C       1.166151    0.080986    1.000489
C      -0.010687    0.010677   -0.002444
C      -1.153441   -0.906866   -0.356001
C      -1.554211   -0.529536   -1.803891
O      -0.451791   -0.490509   -2.703958
C       0.498977    0.547009   -2.433106
C       1.078825    0.235224   -1.059764
H      -0.296322    1.957586    1.134637
H      -0.407745    2.187140   -0.638462
H       1.909676   -0.720762    0.975291
H       0.966330    0.411647    2.023501
H      -0.820407   -1.951135   -0.330024
H      -2.019909   -0.812015    0.308682
H      -2.244697   -1.268715   -2.218638
H      -2.068496    0.445724   -1.798813
H       1.244554    0.482030   -3.229388
H       0.019727    1.532907   -2.499252
H       1.823884   -0.561968   -1.148917
