14

C       0.018450   -1.210174   -0.004090
C       0.001990   -0.005928    0.003027
C      -0.017291    1.418974    0.010933
C      -1.236491    2.115579    0.030847
C      -1.251218    3.504969    0.038540
C      -0.055203    4.220540    0.026555
C       1.159735    3.537773    0.006769
C       1.182610    2.148494   -0.001040
H       0.033221   -2.271720   -0.010557
H      -2.164034    1.554707    0.040119
H      -2.199911    4.031069    0.053950
H      -0.069881    5.305192    0.032609
H       2.093842    4.089491   -0.002625
H       2.124989    1.613064   -0.016422
