19

C      -0.067575    1.511816   -0.108943
C      -0.003059    0.015407    0.060641
N       1.303405   -0.622902   -0.130936
C       0.681029   -0.656556    1.219243
C       1.332607    0.137128    2.233161
C       1.836286    0.780745    3.116225
C       0.113487   -1.972365    1.693331
C       0.817886   -2.793032    2.710146
N      -0.453329   -2.122884    3.037865
H       0.819540    1.987030    0.314165
H      -0.123445    1.770768   -1.171425
H      -0.953770    1.919352    0.388427
H      -0.875581   -0.525098   -0.306419
H       1.203577   -1.540499   -0.560953
H       2.298311    1.359384    3.877875
H      -0.457569   -2.483574    0.918822
H       0.767546   -3.876974    2.661322
H       1.735338   -2.389854    3.129076
H      -0.255089   -1.281761    3.577628
