16

O       0.029133    1.416675    0.145731
C       0.068370    0.036642   -0.137141
C      -1.342273   -0.558459   -0.107844
C      -1.515927   -2.104327   -0.061580
N      -2.116645   -1.946355    1.282709
C      -2.587848   -2.886079    2.185316
O      -3.038936   -2.634390    3.270171
C      -1.946861   -0.546456    1.303025
O      -2.131142    0.288744    2.140247
H      -0.427530    1.529291    0.989816
H       0.509706   -0.071177   -1.133347
H       0.712860   -0.513033    0.569609
H      -1.976176   -0.058119   -0.843524
H      -2.199936   -2.523689   -0.802397
H      -0.581435   -2.672444   -0.049623
H      -2.499150   -3.911933    1.773872
