17

N      -0.065676    1.239355   -0.182798
C      -0.012530   -0.001570    0.033883
O       1.141345   -0.749697    0.177476
C       0.729894   -2.064381    0.529600
C      -0.073446   -2.873923   -0.565873
C      -0.937807   -3.406316    0.599814
C      -0.677901   -1.995513    1.176362
C      -1.155521   -0.987419    0.093470
N      -0.988502   -1.859526   -1.123098
H       0.873506    1.638760   -0.234553
H       1.529844   -2.579600    1.056743
H       0.393339   -3.513946   -1.312443
H      -1.959701   -3.691478    0.349568
H      -0.443995   -4.180670    1.191029
H      -0.834499   -1.719362    2.217581
H      -2.143469   -0.541961    0.180482
H      -0.548396   -1.330617   -1.871417
