18

N       0.391354    1.412224   -0.391160
C       0.202771    0.046252   -0.125634
C      -1.000255   -0.581698    0.143891
N      -0.721411   -1.906334    0.272388
N       0.572799   -2.192111    0.086337
C       1.158215   -1.011674   -0.145219
C       2.648438   -0.984227   -0.342113
C       3.172837   -0.225911   -1.568983
O       3.178853    1.194469   -1.400879
H       1.355307    1.628948   -0.620970
H       0.047069    2.017876    0.341831
H      -2.000605   -0.191603    0.241917
H      -1.364412   -2.653989    0.465118
H       3.148521   -0.564949    0.545507
H       2.975009   -2.027541   -0.407104
H       4.187854   -0.574010   -1.806749
H       2.541825   -0.417431   -2.441318
H       3.820396    1.400028   -0.712631
