19

C       1.563537    0.645339   -1.844331
C       1.743574   -0.738258   -1.242690
C       1.137352   -1.817480   -2.135419
O       3.157901   -1.083472   -0.985761
C       2.825501   -1.513084    0.333308
C       2.431479   -0.343764    1.200762
C       3.089421    0.984785    1.088880
O       3.059851    1.813859    1.968170
C       1.424688   -0.997750    0.234539
H       2.094207    0.707736   -2.800070
H       0.502019    0.833056   -2.035244
H       1.934638    1.437983   -1.194124
H       1.597202   -1.783198   -3.127347
H       1.302701   -2.810773   -1.710653
H       0.059113   -1.662734   -2.249890
H       3.257373   -2.437022    0.699714
H       2.188912   -0.601996    2.228762
H       3.663793    1.151089    0.157003
H       0.496312   -1.401080    0.616605
