17

C      -0.152886    1.557809    0.010887
C       0.005741    0.044139    0.015991
C       1.132635   -0.602874   -0.848197
C       2.131920   -0.248350    0.291722
C       0.870859   -0.597735    1.165596
C       0.759726   -2.087350    0.803882
O       0.678149   -3.063997    1.504215
N       0.832852   -2.031128   -0.593080
H       0.782983    2.096263    0.180679
H      -0.561127    1.894858   -0.948293
H      -0.855901    1.864779    0.792279
H      -0.968552   -0.430244   -0.134818
H       1.292522   -0.366787   -1.899611
H       3.013541   -0.885724    0.397516
H       2.419929    0.801779    0.340453
H       0.770788   -0.342218    2.217840
H       1.323148   -2.765194   -1.084086
