19

C       0.183414    1.272118   -0.252671
O       0.030776   -0.009955    0.319130
C      -1.265561   -0.518588    0.202786
C      -1.714967   -1.105416   -1.168231
C      -2.295209   -2.340138   -0.404412
N      -1.951250   -3.637451   -0.974669
C      -1.439815   -1.912753    0.832184
C      -3.737910   -2.192333   -0.148389
N      -4.877670   -2.116436    0.037011
H       1.216808    1.581560   -0.081980
H      -0.009408    1.265041   -1.335751
H      -0.491335    2.006292    0.213892
H      -2.002043    0.203848    0.585520
H      -2.400525   -0.530742   -1.792136
H      -0.848898   -1.433097   -1.747837
H      -2.246213   -4.380860   -0.345585
H      -2.463899   -3.780902   -1.841767
H      -0.493816   -2.457390    0.806872
H      -1.895731   -1.984159    1.819928
