20

C       0.235204    1.375125    0.144129
O       0.045234   -0.033371   -0.001279
C       0.602515   -0.560890   -1.123253
O       1.191304    0.107469   -1.948582
N       0.412458   -1.913400   -1.194106
C      -0.333997   -2.658036   -0.193829
C       0.885974   -2.574931   -2.386464
C       1.688109   -3.848083   -2.340965
C       0.275532   -3.851628   -2.894039
H       1.298289    1.622466    0.203541
H      -0.202180    1.916473   -0.698372
H      -0.269434    1.644745    1.072765
H      -1.373899   -2.830105   -0.500306
H       0.137341   -3.630454   -0.021006
H      -0.334072   -2.108408    0.743960
H       1.182676   -1.839430   -3.120820
H       2.524785   -3.943695   -3.023833
H       1.844019   -4.328338   -1.380969
H      -0.484726   -4.341006   -2.296348
H       0.126074   -3.951581   -3.963386
