18

C       0.082420    1.505023   -0.101757
C       0.017327   -0.007399   -0.018263
C       1.342370   -0.716805   -0.138627
C       0.644639   -0.639340    1.196061
C       0.586197   -2.178816    1.184865
C       0.022596   -2.780524   -0.056476
N       1.371375   -2.235171   -0.139417
C       1.006957   -3.031025    2.320451
O       1.126100   -4.231294    2.261051
H       1.011628    1.889154    0.331882
H       0.035348    1.840445   -1.142749
H      -0.751833    1.962959    0.439549
H      -0.888790   -0.424001   -0.445807
H       2.239279   -0.224924   -0.492730
H       0.922724   -0.077245    2.079132
H       0.028735   -3.866225   -0.063273
H      -0.809098   -2.321298   -0.577479
H       1.206164   -2.476850    3.265448
