17

C      -0.169478    1.450540    0.153778
N       0.080752    0.033655   -0.061723
C       0.686226   -0.468866   -1.275707
C       1.485865    0.457338   -2.194396
C       2.627921    0.938352   -1.326912
C       2.621345    0.366366   -0.121124
C       1.439191   -0.538366    0.043688
C       1.559903   -1.726129    0.852850
N       1.687569   -2.672897    1.504113
H       0.628972    2.122575   -0.186591
H      -1.094250    1.710355   -0.370191
H      -0.327722    1.614986    1.223290
H       0.206502   -1.346288   -1.698750
H       1.846923   -0.091899   -3.071901
H       0.877811    1.286919   -2.577715
H       3.337849    1.687199   -1.659342
H       3.333912    0.535243    0.675994
