17

O       0.216786    1.167780    0.372822
C       0.025231   -0.182400    0.054113
C      -1.465708   -0.561555   -0.122787
C      -1.747135   -2.093565   -0.035043
C      -2.280465   -1.949623    1.421726
C      -2.258275   -0.430423    1.226932
O      -2.724069    0.498985    1.807704
C      -2.092586    0.182914   -1.270122
O      -1.671353    1.222525   -1.722931
H      -0.181758    1.674308   -0.348246
H       0.553375   -0.476455   -0.868473
H       0.453896   -0.770073    0.873645
H      -2.518288   -2.421190   -0.737275
H      -0.867184   -2.726007   -0.164758
H      -3.261688   -2.372715    1.651233
H      -1.576172   -2.278992    2.192044
H      -3.013058   -0.279758   -1.688956
