18

C      -0.076746    1.613957    0.033669
C       1.442110    1.261737   -0.011145
C       1.244655    0.033775    0.913893
N       1.929177   -0.939676   -0.010181
C       1.263813   -2.267969    0.020338
C      -0.259488   -2.271599    0.067903
C      -0.938761   -1.120365    0.080648
C      -0.058704    0.073482    0.044418
C       1.187923    0.020427   -0.903957
H      -0.434880    2.112774    0.939795
H      -0.490911    2.099591   -0.855583
H       2.305542    1.925313   -0.042964
H       1.309492   -0.025643    2.002139
H       1.603538   -2.829301   -0.861058
H       1.658090   -2.816463    0.886979
H      -0.755571   -3.238108    0.090479
H      -2.021798   -1.061578    0.114014
H       1.184805   -0.054980   -1.993139
