16

C       0.004314    1.522979    0.026442
C      -0.041093    0.030624    0.017780
C      -1.088576   -0.797711    0.131037
C      -0.721318   -2.264921    0.084117
O      -1.485790   -2.990726   -0.870798
C       0.803270   -2.253132   -0.165145
C       1.207161   -0.776076   -0.116205
O       2.331091   -0.332746   -0.165955
H       0.677516    1.877036    0.814531
H       0.414359    1.901124   -0.916469
H      -0.984441    1.961154    0.180492
H      -2.125494   -0.494563    0.240386
H      -0.959111   -2.748802    1.038347
H      -1.387225   -2.548005   -1.721485
H       1.379112   -2.830947    0.562485
H       1.031716   -2.668097   -1.152299
