20

C       0.068533    1.530382    0.283745
C      -0.034788    0.047954   -0.117586
C      -1.442337   -0.468847   -0.130171
C      -2.145119   -0.920315   -1.174029
C      -3.530436   -1.426941   -0.796762
O      -3.728748   -2.793022   -1.123735
C      -3.572640   -1.170324    0.715587
N      -2.594524   -2.034334    1.419180
C      -2.270389   -0.603255    1.118876
H       1.111899    1.859961    0.283474
H      -0.489187    2.163298   -0.413387
H      -0.332990    1.705652    1.287312
H       0.410234   -0.093193   -1.108415
H       0.561551   -0.552408    0.583456
H      -1.770200   -1.019432   -2.187141
H      -4.325973   -0.881158   -1.317168
H      -3.146672   -3.275920   -0.520110
H      -4.505922   -0.923685    1.208363
H      -2.877616   -2.113226    2.394738
H      -2.162156    0.083403    1.951465
