20

C       0.029207    1.462188   -0.001906
C       0.073848   -0.053260    0.025998
C       0.067958   -0.656430   -1.371908
O      -0.044074   -2.064024   -1.426447
C      -1.054766   -2.547002   -0.557723
C      -0.761708   -2.124369    0.868335
C       0.737955   -2.175092    1.263499
C       0.703262   -0.652870    1.229371
N      -0.818568   -0.615414    1.067007
H       0.933208    1.872872   -0.465543
H      -0.837879    1.814391   -0.570358
H      -0.052904    1.860566    1.012084
H      -0.769581   -0.194298   -1.924772
H       0.992992   -0.398920   -1.899226
H      -2.048535   -2.179484   -0.865606
H      -1.044478   -3.637326   -0.653913
H      -1.441999   -2.609063    1.571561
H       0.880016   -2.549418    2.279294
H       1.425902   -2.683483    0.585695
H       1.197146   -0.016105    1.958675
