21

C       0.284718    1.339903   -0.309859
N      -0.015551   -0.074925   -0.131907
C      -1.409022   -0.400939   -0.447049
C      -1.558545   -1.793741   -1.079930
N      -1.166532   -2.945210   -0.278773
C       0.218319   -2.966417    0.197821
C       0.410775   -2.049993    1.401899
O       0.527791   -2.488129    2.524520
C       0.402336   -0.534163    1.181679
H       1.353245    1.513250   -0.146440
H       0.048076    1.644213   -1.333530
H      -0.272810    1.999396    0.381474
H      -2.057383   -0.315645    0.445927
H      -1.779274    0.334001   -1.170362
H      -2.605972   -1.936009   -1.372063
H      -0.960489   -1.809994   -1.999777
H      -1.805667   -3.091382    0.495768
H       0.481420   -3.980754    0.512256
H       0.869369   -2.661716   -0.628121
H       1.440540   -0.215889    1.345707
H      -0.185267   -0.089858    2.007546
