17

O      -0.106304    1.436350   -0.056761
C      -0.022090    0.023755    0.001487
C       0.426675   -0.577531    1.362410
C      -0.667653   -0.077335    2.329547
C      -1.832292   -0.633285    1.519206
C      -1.250364   -1.845706    0.809605
O       0.116130   -1.969784    1.180913
C      -1.419614   -0.574698    0.038659
O      -2.299050   -0.456489   -1.018984
H       0.775276    1.787958   -0.213639
H       0.568510   -0.384209   -0.829414
H       1.469741   -0.464365    1.653253
H      -0.573523   -0.527557    3.321494
H      -0.675752    1.011322    2.408432
H      -2.869915   -0.593953    1.820710
H      -1.767369   -2.773776    0.612960
H      -2.487515    0.483676   -1.126320
