18

N       0.680297    0.989643   -0.099460
C       0.322384   -0.205230   -0.271249
C      -0.661453   -0.980599    0.576982
O      -0.915798   -2.156522   -0.172318
C       0.165356   -2.337086   -1.066644
O       0.751513   -1.044825   -1.259596
C       1.180944   -3.336318   -0.562413
C       2.584833   -3.344107   -1.107773
C       2.334262   -2.931901    0.321193
H       1.366346    1.272420   -0.800548
H      -0.226852   -1.202705    1.561180
H      -1.593986   -0.430339    0.721002
H      -0.252138   -2.659531   -2.027566
H       0.725175   -4.301601   -0.362925
H       3.052526   -4.302749   -1.300767
H       2.851546   -2.559550   -1.806807
H       2.460059   -1.883339    0.564339
H       2.618489   -3.612217    1.115809
