23

C      -0.078106    1.389191   -0.097050
O      -0.089381   -0.016331   -0.118664
C       0.777793   -0.561021   -1.091527
C       0.673006   -2.069746   -1.046305
C      -0.645909   -2.739265   -1.523059
C       0.205931   -3.835926   -2.219133
C      -0.228354   -4.323362   -3.584299
O       0.768938   -5.210121   -4.073130
C       1.435348   -2.890287   -2.123158
H       0.922894    1.788418    0.133979
H      -0.400017    1.817507   -1.060264
H      -0.773876    1.712460    0.681461
H       0.505562   -0.191149   -2.096906
H       1.818607   -0.240856   -0.903157
H       0.931450   -2.412452   -0.039161
H      -1.363897   -3.052272   -0.762537
H      -1.167001   -2.109159   -2.253365
H       0.340390   -4.701514   -1.562038
H      -1.207611   -4.825228   -3.506051
H      -0.357561   -3.459370   -4.258178
H       0.506737   -5.505581   -4.949790
H       1.566468   -2.317824   -3.048887
H       2.397086   -3.327946   -1.848912
