21

C      -0.043163    1.610540    0.114206
C      -0.009375    0.072183    0.042132
C       0.788918   -0.522639    1.219200
C      -1.387282   -0.521295   -0.052786
C      -1.963748   -1.372346   -0.984412
C      -1.341260   -1.967382   -2.211619
C      -3.281224   -1.571555   -0.506654
N      -3.520000   -0.910802    0.620526
N      -2.355134   -0.284071    0.876288
H       0.972684    2.018339    0.111229
H      -0.587507    2.035041   -0.733904
H      -0.530968    1.959079    1.031977
H       0.509353   -0.205770   -0.882438
H       0.844088   -1.612414    1.147834
H       1.809252   -0.125819    1.234470
H       0.321907   -0.275568    2.179269
H      -0.927457   -2.966174   -2.025142
H      -2.078823   -2.070843   -3.013754
H      -0.526189   -1.347205   -2.597518
H      -4.063472   -2.171268   -0.951224
H      -2.291686    0.301687    1.691129
