16

C      -0.012794    1.556524   -0.041080
C      -0.008738    0.055866   -0.008367
N      -0.014354   -0.669173    1.138520
O      -0.023291   -0.038452    2.221059
C       0.001232   -0.726331   -1.174248
C       0.006506   -2.109423   -1.390920
N       0.016193   -2.309467   -2.751664
C       0.017352   -1.152983   -3.409734
N       0.008382   -0.184150   -2.467264
H       0.006909    0.804477   -2.655111
H       0.877041    1.986577   -0.525040
H      -0.898078    1.981480   -0.537719
H      -0.021152    1.879562    1.004354
H       0.003979   -2.913632   -0.680808
H       0.021704   -3.211535   -3.199488
H       0.024060   -1.018387   -4.475122
