15

C       0.106648    1.472746    0.025670
C      -0.063261   -0.003262    0.010934
C      -1.148822   -0.818422    0.093179
C      -0.667345   -2.172397    0.011781
N      -1.441024   -3.347294   -0.026157
C       0.682079   -2.066121   -0.108368
O       1.645886   -3.013045   -0.149763
O       1.072716   -0.753229   -0.113211
H       0.737938    1.800254    0.860101
H       0.573437    1.836041   -0.897501
H      -0.868291    1.955279    0.126136
H      -2.177374   -0.503928    0.185834
H      -2.146705   -3.360690    0.701248
H      -0.855115   -4.167258    0.081948
H       2.069384   -3.012614   -1.017690
