17

C      -0.339964    1.456648   -0.018181
C       0.121033   -0.009732    0.061838
C       0.854614   -0.454363   -1.157197
C       2.161572   -0.779613   -1.395582
C       3.344534   -0.822901   -0.476012
O       3.063522   -1.469519    0.759873
N       2.243843   -1.115389   -2.728753
N       1.126601   -1.012784   -3.293855
O       0.181424   -0.584879   -2.301088
H       0.513531    2.132418   -0.125088
H      -1.004485    1.611731   -0.872242
H      -0.880013    1.731125    0.891887
H       0.782309   -0.166910    0.917608
H      -0.751084   -0.659368    0.201393
H       4.179147   -1.293710   -1.012567
H       3.665254    0.187292   -0.200324
H       2.810016   -2.377695    0.562333
