16

C      -0.010534    1.528051   -0.125700
C      -0.062340    0.002371   -0.222606
C      -1.418287   -0.563224    0.248421
C      -1.484325   -2.047795    0.159987
N      -1.468995   -2.923261    1.124018
C      -1.522834   -4.107193    0.431092
N      -1.568400   -3.995592   -0.867070
O      -1.542457   -2.607408   -1.058173
H       0.958227    1.908773   -0.461822
H      -0.785278    1.991805   -0.746031
H      -0.163135    1.866136    0.904967
H       0.116700   -0.316166   -1.255354
H       0.736184   -0.439877    0.384139
H      -1.604714   -0.289733    1.290077
H      -2.223630   -0.134956   -0.359707
H      -1.530017   -5.076212    0.908831
