20

C      -0.300324    1.568295   -0.050764
C      -0.058404    0.060955   -0.028047
C       1.143119   -0.404203   -0.907705
C       2.019157   -0.515859    0.371810
O       2.762565    0.657112    0.655888
C       0.715091   -0.504249    1.211377
C       0.709580    0.264614    2.537821
C       1.462111   -0.435313    3.577541
N       2.053933   -1.010637    4.386567
H       0.628801    2.121323    0.111482
H      -0.704729    1.869963   -1.023068
H      -1.022736    1.875268    0.713760
H      -0.998216   -0.461960   -0.227979
H       0.973879   -1.375323   -1.380708
H       1.499343    0.302497   -1.662647
H       2.649501   -1.408531    0.466151
H       3.507970    0.696714    0.048626
H       0.401704   -1.536051    1.393682
H       1.148110    1.256485    2.402687
H      -0.319694    0.402186    2.888997
