20

C       0.021976    1.543220   -0.070997
C       0.037822    0.032692    0.082493
O       0.056745   -0.498108    1.169599
C       0.028471   -0.775803   -1.213000
C       0.044793   -2.273200   -1.007208
C      -0.973913   -3.180675   -0.275413
N       0.065611   -4.204968   -0.765535
C       0.041281   -3.394014   -2.072258
C       1.098542   -3.161692   -0.302235
H       0.891001    1.877311   -0.649018
H      -0.867916    1.861165   -0.625919
H       0.030528    2.015876    0.911748
H      -0.854348   -0.476705   -1.796357
H       0.890356   -0.460817   -1.818865
H      -1.035861   -3.099905    0.810967
H      -1.960857   -3.315723   -0.729137
H      -0.868405   -3.543630   -2.662172
H       0.937992   -3.527086   -2.685539
H       2.075722   -3.278753   -0.781380
H       1.187093   -3.079546    0.782198
