18

C      -0.096105    1.692942    0.416478
C       0.030942    0.202896    0.094771
C       0.756654   -0.226050   -1.218863
C       1.726891   -1.134961   -0.397353
C       1.103646   -0.571825    0.860112
N       1.323536   -0.594624    2.107009
O       2.431770   -1.401538    2.413068
C      -1.311908   -0.490290    0.294689
O      -1.857166   -1.196214   -0.512296
H       0.884242    2.175731    0.381197
H      -0.753946    2.191696   -0.303228
H      -0.505148    1.842654    1.420723
H       0.108748   -0.744649   -1.925361
H       1.256920    0.606365   -1.716735
H       1.558023   -2.208685   -0.523673
H       2.797400   -0.942984   -0.504401
H       2.489184   -1.315146    3.370940
H      -1.759849   -0.299969    1.295695
