21

C       0.320573    1.607489    0.094617
C      -0.021338    0.121318    0.207500
O       0.270338   -0.545849   -1.026742
C       1.143755   -1.647595   -0.826381
C       0.670991   -3.020217   -1.402687
C       2.108869   -3.251598   -1.938190
C       2.374102   -1.730758   -1.781135
C       1.445551   -1.623681    0.643196
C       0.784393   -0.634383    1.231354
H       1.391154    1.741387   -0.085697
H      -0.232084    2.057821   -0.734774
H       0.050402    2.136441    1.014930
H      -1.101246    0.025078    0.411051
H       0.248345   -3.746371   -0.703589
H      -0.042043   -2.843955   -2.212208
H       2.714317   -3.849693   -1.251353
H       2.206911   -3.674850   -2.939526
H       2.153698   -1.181430   -2.700159
H       3.341456   -1.403683   -1.391198
H       2.110141   -2.336496    1.115806
H       0.796456   -0.373094    2.282160
