19

O       0.079259    1.397754    0.209225
C      -0.017143   -0.002879    0.055630
C      -1.425921   -0.530919   -0.199080
C      -1.310604   -1.968323   -0.802803
C      -2.591340   -1.705416   -1.630427
C      -1.773796   -0.394741   -1.720218
C      -0.473661   -1.244599   -1.908101
C       0.688308   -0.520042   -1.254420
O       1.100914    0.557972   -2.090701
H       0.065289    1.760823   -0.686605
H       0.420389   -0.443787    0.958098
H      -2.197132   -0.320307    0.543619
H      -1.031258   -2.879167   -0.269000
H      -2.705552   -2.278915   -2.555117
H      -3.533142   -1.662587   -1.076063
H      -2.034002    0.518837   -2.255673
H      -0.297161   -1.743912   -2.861940
H       1.536251   -1.184486   -1.044111
H       1.890365    0.946523   -1.698317
