22

C       0.772271    1.584710    0.353319
C      -0.039217    0.364981   -0.074519
N       0.598643   -0.308088   -1.203484
C       1.593651   -1.336367   -0.881053
C       0.266282   -1.696914   -1.440053
C      -0.795140   -2.578902   -0.760544
C      -0.761209   -3.469069   -2.039365
O      -1.955309   -4.010508   -2.540488
C      -0.052345   -2.313368   -2.804474
H       1.768910    1.289052    0.697188
H       0.896638    2.275699   -0.485100
H       0.274649    2.113510    1.172096
H      -0.179290   -0.311553    0.786517
H      -1.039702    0.678616   -0.397418
H       2.484454   -1.348506   -1.504703
H       1.770147   -1.562903    0.170956
H      -0.564175   -3.049321    0.197656
H      -1.758773   -2.060902   -0.676070
H      -0.088672   -4.319948   -1.902143
H      -2.564855   -3.284063   -2.709264
H      -0.775711   -1.700590   -3.356169
H       0.776013   -2.566780   -3.469868
