23

C      -1.126137    0.823082   -0.271059
C       0.127257   -0.005951   -0.049967
O       0.415426   -0.716443   -1.238312
C       1.563480   -1.529358   -1.145064
C       1.780333   -2.253540   -2.479155
C       2.024632   -1.271756   -3.624585
O       2.897609   -3.144351   -2.317891
C       0.599565   -3.189819   -2.787987
O       0.851741   -3.976728   -3.933800
H      -0.979001    1.530081   -1.092477
H      -1.973466    0.178532   -0.521370
H      -1.373775    1.387342    0.632929
H       0.979277    0.641704    0.218017
H      -0.015312   -0.710641    0.786380
H       2.455375   -0.921873   -0.908008
H       1.455816   -2.277339   -0.343089
H       2.966566   -0.728282   -3.475923
H       2.066913   -1.807630   -4.575172
H       1.220063   -0.533752   -3.664938
H       3.705441   -2.646490   -2.476997
H       0.414820   -3.820234   -1.903191
H      -0.301126   -2.602418   -2.978708
H       1.724993   -4.361772   -3.787371
