21

C      -0.056338    1.396513   -0.007318
O       0.033286   -0.007236   -0.002308
C       0.660656   -0.512605    1.159690
C       0.725911   -2.030839    1.030685
C       1.614336   -2.546640   -0.082143
C       2.270851   -3.648349    0.283945
C       1.927177   -4.051934    1.701318
C       1.300211   -2.759380    2.279669
O       2.273899   -1.974036    2.960349
H       0.937209    1.871102    0.035225
H      -0.548647    1.691506   -0.937436
H      -0.648615    1.771599    0.842593
H       1.668851   -0.083755    1.267445
H       0.094046   -0.228071    2.061926
H      -0.304288   -2.376077    0.856339
H       1.655292   -2.068988   -1.053658
H       2.939331   -4.222546   -0.348045
H       1.210028   -4.884877    1.709031
H       2.785302   -4.367017    2.304910
H       0.530537   -2.960080    3.029014
H       3.014685   -1.851273    2.355051
