14

O       0.059170   -0.027474    0.198674
C       0.034656    1.168670    0.132906
O      -1.088440    1.955675    0.183102
N      -0.753779    3.361879    0.060592
C       0.532802    3.326156   -0.049683
N       1.520744    4.257392   -0.256568
C       2.808772    3.600701    0.059720
C       2.512580    2.088716   -0.170894
N       1.072847    2.076505    0.007147
H       1.363261    5.193300    0.085748
H       3.601711    3.967057   -0.595075
H       3.105312    3.775629    1.101845
H       2.785530    1.768412   -1.181735
H       3.019032    1.446918    0.551773
