23

C       0.255998   -0.362263    1.308112
C      -0.154013    0.056562   -0.111649
C      -0.278266    1.583653   -0.214341
C       0.769644   -0.514533   -1.222393
C       2.254041   -0.163550   -1.027481
C       0.562960   -2.052056   -1.361830
O      -0.796577   -2.391626   -1.417353
C       1.264120   -2.602116   -2.588792
O       0.652310   -3.175714   -3.459899
H       0.319327   -1.449703    1.416113
H       1.223420    0.063473    1.596729
H      -0.483571   -0.008493    2.033593
H      -1.143729   -0.366224   -0.309086
H       0.667255    2.092007    0.005300
H      -0.600472    1.892392   -1.214594
H      -1.017426    1.955588    0.502738
H       0.427144   -0.070549   -2.167364
H       2.694213   -0.721042   -0.193796
H       2.849647   -0.376357   -1.919860
H       2.377663    0.900843   -0.811584
H       1.040131   -2.538582   -0.491040
H      -0.913652   -2.857603   -2.261006
H       2.359695   -2.463845   -2.653220
