17

C       0.006955    1.382633   -0.031729
O       0.000243   -0.027295    0.008486
C       0.629554   -0.600664   -1.094449
C       0.582923   -2.112313   -0.982108
O       0.074907   -2.715808   -0.069856
C       1.250302   -2.870637   -2.149635
O       1.758535   -2.267951   -3.062130
C       1.204382   -4.382011   -2.038418
O       1.840840   -4.944799   -3.153617
H       1.031566    1.785610   -0.040098
H      -0.521985    1.767981   -0.917175
H      -0.504715    1.731796    0.867581
H       0.158331   -0.312395   -2.051148
H       1.687222   -0.295486   -1.187548
H       1.674347   -4.656183   -1.079291
H       0.144981   -4.673113   -1.943673
H       1.802486   -5.901462   -3.065436
