17

O      -0.011626    1.418039    0.032479
C       0.020566    0.006831    0.033335
C       0.787267   -0.569661    1.230368
O       0.691372   -1.987518    1.226751
C      -0.650557   -2.397098    1.268664
O      -1.391136   -1.941367    0.158965
C      -1.433555   -0.513576    0.077424
C      -2.225789    0.084089    1.158096
C      -2.895402    0.553140    2.038842
H       0.877719    1.741366   -0.143108
H       0.462525   -0.395038   -0.889566
H       1.851928   -0.322214    1.172796
H       0.378181   -0.144987    2.160012
H      -0.656100   -3.486795    1.214842
H      -1.124226   -2.050122    2.202293
H      -1.918779   -0.289692   -0.877569
H      -3.488189    0.977140    2.811648
