17

C      -0.138853    1.468444    0.053417
N      -0.057318    0.018111    0.004392
C       0.625115   -0.548153   -0.890825
C       0.601118   -2.052048   -1.005778
O       1.807816   -2.645238   -1.506038
C       2.522076   -1.969674   -2.442290
N       3.282111   -2.538307   -3.275874
C       2.506269   -0.461196   -2.355937
O       1.282698    0.112389   -1.887819
H       0.624614    1.980652   -0.541599
H      -1.125601    1.785283   -0.305179
H      -0.062478    1.787488    1.097401
H       0.414842   -2.485514   -0.024470
H      -0.222218   -2.336862   -1.675684
H       3.242313   -3.553007   -3.158284
H       3.320514   -0.150887   -1.686276
H       2.697958   -0.045615   -3.344238
