16

O       0.067929    1.361451    0.005017
C      -0.006767   -0.037439    0.045505
C      -1.467571   -0.539731   -0.059096
C      -1.587031   -2.074422    0.207050
O      -2.384927   -2.167283    1.410917
C      -2.643975   -0.895728    1.775714
N      -2.218312    0.072206    1.076394
C      -2.066759   -0.153708   -1.335039
C      -2.552573    0.119730   -2.399031
H      -0.597307    1.685607    0.626184
H       0.580225   -0.423270   -0.794499
H       0.413689   -0.449262    0.978808
H      -2.101949   -2.606893   -0.592932
H      -0.618788   -2.545119    0.402551
H      -3.224659   -0.800606    2.686799
H      -2.980952    0.382168   -3.334858
