19

C      -0.240992    1.487624   -0.027732
C      -0.025233   -0.022947   -0.007696
C       1.157484   -0.513280   -0.893249
C       2.052314   -0.599779    0.389523
C       0.740290   -0.544510    1.243464
C       2.936860   -1.729295    0.545707
C       3.667094   -2.687956    0.674227
C       4.484284   -3.765612    0.817887
C       5.210791   -4.722354    0.945468
H       0.692164    2.030794    0.162336
H      -0.623055    1.817509   -0.999833
H      -0.962299    1.792097    0.738288
H      -0.974458   -0.530065   -0.200452
H       0.980925   -1.503766   -1.317667
H       1.506216    0.155752   -1.683844
H       2.620597    0.328142    0.514054
H       0.762444    0.100120    2.125633
H       0.422503   -1.545542    1.542311
H       5.849165   -5.562884    1.057662
