17

C       0.428010    1.349051    0.155484
C       0.015016   -0.069897   -0.057181
C      -0.587034   -0.687002   -1.132519
C      -0.719383   -2.071561   -0.825824
C      -0.203599   -2.263905    0.434773
C      -0.120969   -3.466014    1.309965
O       1.120718   -3.419780    2.017063
N       0.223383   -1.040415    0.894290
H       1.511209    1.449192    0.301988
H       0.158025    1.948330   -0.717125
H      -0.060609    1.797720    1.029656
H      -0.892547   -0.194222   -2.043492
H      -1.152312   -2.837016   -1.452406
H      -0.956433   -3.488337    2.030694
H      -0.205599   -4.369375    0.688528
H       1.095406   -4.094015    2.702867
H       0.743601   -0.931169    1.748621
