17

C      -0.027724    1.568721    0.040084
C       0.033982    0.036793    0.050253
C       0.746776   -0.506357    1.294261
C      -1.369916   -0.557941   -0.066929
O       0.699725   -0.447868   -1.162213
C       1.975258   -0.122510   -1.413352
O       2.552136   -0.499302   -2.392664
H       0.961136    2.024501    0.141978
H      -0.478666    1.924604   -0.890404
H      -0.640472    1.920736    0.875514
H       0.172855   -0.253174    2.190830
H       0.833069   -1.595011    1.237742
H       1.748931   -0.085523    1.414902
H      -1.858759   -0.204388   -0.978344
H      -1.319435   -1.649060   -0.106216
H      -1.979289   -0.266214    0.793128
H       2.440412    0.517659   -0.643173
