19

C      -0.139218    1.356406    0.053151
O       0.052985   -0.034642   -0.037693
C       0.671663   -0.621820    1.100513
C      -0.286484   -0.759124    2.288192
C       1.211189   -1.954587    0.649659
N       1.628032   -2.859055    1.534407
N       2.063498   -3.887728    0.781989
C       1.931621   -3.666542   -0.548032
C       1.379836   -2.410848   -0.677849
H       0.804534    1.884734    0.263347
H      -0.520887    1.691106   -0.914913
H      -0.867977    1.635381    0.827851
H       1.520770    0.015182    1.405879
H      -1.171970   -1.326802    1.988331
H       0.210297   -1.294902    3.100197
H      -0.603070    0.219445    2.660251
H       2.427207   -4.705404    1.240296
H       2.231509   -4.402305   -1.277554
H       1.121948   -1.889777   -1.582968
