20

C      -0.261771    1.577831    0.018078
C       0.039110    0.085858    0.003630
C       1.071684   -0.544180   -0.991193
C       2.285376    0.375313   -1.156456
C       3.000146    0.232714    0.172125
C       2.859991   -1.133951    0.695772
C       1.490975   -1.573647    0.150148
C       0.851592   -0.568046    1.129740
N       2.225241    0.024382    1.441395
H       0.629212    2.173210    0.236144
H      -0.669238    1.914611   -0.941946
H      -1.003290    1.808988    0.790585
H      -0.899899   -0.476766   -0.078373
H       0.679269   -0.936291   -1.930409
H       2.952898    0.029674   -1.955950
H       1.999106    1.404087   -1.394568
H       3.907768    0.798681    0.358817
H       3.640824   -1.748690    1.129759
H       1.203199   -2.618361    0.061724
H       0.375158   -0.849711    2.070679
