23

C      -0.029165    1.539579   -0.138588
C      -0.006932    0.016242    0.001174
C      -1.416202   -0.603563   -0.093706
C      -1.417676   -2.057174    0.032853
C      -1.384774   -3.257011    0.137527
C      -1.384469   -4.712664    0.269462
C      -2.776171   -5.324002    0.182478
C      -3.376932   -5.649950   -1.157822
C      -2.938573   -6.762377   -0.234308
H       0.979238    1.958418   -0.068298
H      -0.449558    1.844062   -1.103692
H      -0.637175    2.002208    0.647051
H       0.626185   -0.424938   -0.776807
H       0.440596   -0.268429    0.960002
H      -2.055216   -0.164229    0.684781
H      -1.872110   -0.315509   -1.051020
H      -0.751320   -5.154623   -0.512219
H      -0.920217   -4.994762    1.224557
H      -3.463122   -4.958004    0.939781
H      -4.438990   -5.487009   -1.302892
H      -2.775342   -5.457618   -2.040314
H      -2.044750   -7.318317   -0.499738
H      -3.699942   -7.359614    0.255172
