19

O      -0.064959    1.403218    0.005422
C       0.028387   -0.011815   -0.006374
C       0.674242   -0.577140   -1.288026
C      -0.134481   -1.850871   -1.544040
O      -1.462224   -1.517416   -1.148582
C      -1.400875   -0.641269   -0.030253
C      -1.486798   -1.387220    1.306218
O      -0.141823   -1.725891    1.636201
C       0.621495   -0.576701    1.311564
H       0.827844    1.764024   -0.004621
H       0.508822    0.142723   -2.095131
H       1.748107   -0.759958   -1.189843
H      -0.162926   -2.149260   -2.595570
H       0.252154   -2.692256   -0.951643
H      -2.179646    0.116331   -0.145266
H      -1.922843   -0.736308    2.082190
H      -2.069982   -2.307112    1.234891
H       1.669679   -0.880021    1.237120
H       0.523866    0.199072    2.088619
