21

C       0.032286    1.475613    0.008727
C       0.020263   -0.035534    0.131267
O       0.982884   -0.647963   -0.784176
C       1.777927   -1.112011    0.316445
C       3.262872   -1.039015    0.185646
C       0.753711   -0.616662    1.332548
C       1.002880   -2.111183    1.131069
C       0.001053   -3.077891    0.547154
O       1.810044   -2.655317    2.149190
H       1.030906    1.874918    0.208497
H      -0.265548    1.773487   -1.001174
H      -0.671374    1.921285    0.720916
H      -0.989416   -0.425519   -0.052906
H       3.597993   -0.008063    0.035629
H       3.734274   -1.446305    1.081868
H       3.591532   -1.629997   -0.677117
H       0.894071   -0.139712    2.295120
H      -0.441410   -2.683115   -0.369097
H       0.504063   -4.019487    0.305944
H      -0.805062   -3.296049    1.258406
H       1.260737   -2.769244    2.932785
