19

C       0.159469    1.569490   -0.255472
C      -0.061180    0.071993   -0.003416
C       0.628788   -0.431013    1.223258
C       2.038777   -0.716458    1.610763
O       2.025456    0.045301    2.823045
C       0.579402   -0.065715    2.764643
C       0.313795   -1.569598    3.070963
O      -1.052962   -1.921858    2.993281
C       0.985879   -1.831500    1.734394
H       1.223106    1.795632   -0.379444
H      -0.365798    1.896146   -1.158067
H      -0.211237    2.168772    0.582586
H      -1.134755   -0.140485    0.077684
H       0.296820   -0.507212   -0.864607
H       2.958810   -0.797250    1.046126
H       0.045064    0.741481    3.265033
H       0.788787   -1.961922    3.981238
H      -1.476057   -1.633238    3.808760
H       1.035712   -2.760320    1.180145
