16

O       0.048191   -0.011638   -0.111706
C       0.006947    1.183026   -0.016987
N      -1.024912    2.080078    0.119250
C      -0.192012    3.295359    0.090492
C      -0.188082    4.195522    1.286533
C       0.928983    4.365459    1.989500
C       2.167436    3.557844    1.703033
O       1.870617    2.295207    1.127658
C       1.046283    2.346384   -0.006562
H      -2.025887    1.947503    0.103392
H      -0.352562    3.881718   -0.823910
H      -1.094576    4.748539    1.517691
H       0.979001    5.079936    2.806347
H       2.864891    4.128923    1.064352
H       2.699033    3.333922    2.633112
H       1.629205    2.451902   -0.931400
