16

C      -0.040464    1.503020    0.080030
C      -0.005010    0.016203   -0.019601
C       0.037689   -0.763000   -1.128370
N       0.047250   -2.090327   -0.665780
C      -0.035277   -3.234680   -1.446327
O      -0.025029   -3.227974   -2.650100
C       0.033307   -2.005981    0.724981
N      -0.022677   -3.134911    1.528251
N       0.001753   -0.774431    1.138179
H       0.816494    1.876600    0.651071
H      -0.024849    1.964655   -0.910242
H      -0.943192    1.836041    0.603806
H       0.058481   -0.555885   -2.183353
H      -0.121772   -4.149481   -0.835775
H       0.703151   -3.818356    1.352400
H      -0.018789   -2.858744    2.502327
