17

C       0.010086    1.573111   -0.110135
O       1.335295    1.841722   -0.569768
C       2.248125    0.963815    0.089339
C       1.385574   -0.175576    0.600668
O       1.821003   -1.505988    0.781205
C       1.285506   -0.785215    1.934104
C      -0.169084   -1.007305    2.188183
C      -0.897980   -0.552085    1.160588
C      -0.034122    0.044023    0.074492
H      -0.188736    2.082343    0.846180
H      -0.681694    1.957264   -0.862993
H       2.989599    0.618556   -0.638903
H       2.774191    1.485379    0.901504
H       2.003775   -0.624766    2.732101
H      -0.556883   -1.476919    3.083946
H      -1.975329   -0.640599    1.072587
H      -0.193876   -0.441135   -0.894999
