18

C      -0.008085    1.543405    0.011190
C       0.019056    0.004406    0.005343
C       0.759628   -0.510650    1.252552
C      -1.417845   -0.543345   -0.012349
C       0.735434   -0.492538   -1.259982
O       2.068636   -0.000493   -1.268845
H       1.005679    1.949367   -0.023045
H      -0.556231    1.930797   -0.855377
H      -0.501385    1.919897    0.913643
H       0.274101   -0.154598    2.167430
H       0.765687   -1.606345    1.282375
H       1.797149   -0.168249    1.256582
H      -1.969004   -0.194598   -0.893133
H      -1.429038   -1.639245   -0.020213
H      -1.967539   -0.212591    0.875068
H       0.724086   -1.594860   -1.273699
H       0.183368   -0.145696   -2.149014
H       2.502970   -0.320256   -2.064196
