14

N      -0.088988    1.214272    0.007570
C      -0.035571   -0.036372    0.000563
C      -1.236044   -0.988930    0.002344
N      -0.546475   -2.253622   -0.008510
N      -0.932268   -3.549209   -0.012812
C       0.230729   -4.201731   -0.023746
C       1.368894   -3.346314   -0.024615
C       0.788855   -2.103402   -0.015100
O       1.146088   -0.785870   -0.009994
H       0.841302    1.633243    0.004572
H      -1.850159   -0.845347    0.896211
H      -1.860485   -0.835651   -0.882711
H       0.228566   -5.281941   -0.029881
H       2.412178   -3.607240   -0.031613
