18

O       0.409652    0.426047   -1.129757
C       0.220932    1.322256   -0.333728
N       1.094073    1.704376    0.636580
C       2.429645    1.132563    0.746809
C       3.486940    2.051563    0.220687
C       3.858396    2.269906   -1.211804
C       4.927926    1.878764   -0.207176
C       5.201868    3.070235    0.702883
O       3.784591    3.226612    0.994720
H      -0.712233    1.918476   -0.305184
H       0.882337    2.527500    1.178317
H       2.634413    0.892089    1.795827
H       2.419951    0.206468    0.167987
H       3.560883    1.479827   -1.893722
H       3.833457    3.274790   -1.624732
H       5.536944    0.989951   -0.300566
H       5.754154    2.815072    1.614158
H       5.633629    3.969430    0.247642
