23

C       0.034176    1.513725    0.267273
C       0.113590    0.027758    0.012844
C      -0.948195   -0.888820    0.570649
C       0.465204   -0.973038    1.095175
C       1.366978   -2.050110    0.512049
C       2.826986   -1.796257    0.907773
O       0.944951   -3.322667    1.007184
C       1.153147   -1.921119   -1.023760
C       0.784565   -0.445492   -1.276081
H       1.027446    1.977711    0.232389
H      -0.588819    2.012517   -0.485074
H      -0.400597    1.728229    1.248754
H      -1.682710   -0.439958    1.231219
H      -1.338195   -1.705047   -0.027571
H       0.657588   -0.654815    2.114869
H       2.938490   -1.821909    1.995815
H       3.483719   -2.562518    0.477539
H       3.173570   -0.822528    0.546922
H       1.565610   -3.984155    0.683058
H       2.033263   -2.238624   -1.591647
H       0.331225   -2.585052   -1.305733
H       0.149148   -0.317012   -2.160266
H       1.688182    0.153539   -1.447537
