26

C      -0.294755    1.456943   -0.124040
C       0.007381   -0.042244    0.011254
C       0.720205   -0.562832   -1.244400
C       0.830549   -0.365671    1.271789
C       0.127259   -0.067543    2.600650
C       0.943789   -0.519174    3.811978
N       0.271352   -0.170373    5.059531
C      -0.667117   -1.156249    5.585263
C       0.653214   -0.937885    6.238189
H       0.634435    2.036574   -0.189577
H      -0.874475    1.659347   -1.030861
H      -0.866820    1.840084    0.725675
H      -0.952093   -0.573485    0.097374
H       1.687813   -0.064399   -1.380065
H       0.908105   -1.639998   -1.180327
H       0.125055   -0.378713   -2.145050
H       1.100321   -1.430662    1.245653
H       1.780989    0.186291    1.228174
H      -0.073930    1.003822    2.705837
H      -0.849417   -0.570059    2.621037
H       1.143784   -1.605970    3.743254
H       1.920115   -0.017789    3.810171
H      -1.577000   -0.760353    6.027356
H      -0.796883   -2.084974    5.030492
H       1.400163   -1.721563    6.117737
H       0.727296   -0.377974    7.166283
