20

C       0.034704    1.675354   -0.032625
C       0.045640    0.143168    0.016374
O       0.610855   -0.340891    1.221036
C      -1.371172   -0.469055   -0.147912
N      -2.113555   -0.279695    1.094259
C      -3.154210    0.746005    1.124785
C      -3.510528   -0.698862    1.106042
C       0.898953   -0.424340   -1.117113
O       0.922102    0.015507   -2.237035
H       1.036369    2.054560    0.185749
H      -0.259864    2.024364   -1.025696
H      -0.652244    2.080608    0.714671
H      -0.132376   -0.409867    1.839706
H      -1.871971   -0.040148   -1.029011
H      -1.270830   -1.549484   -0.307495
H      -3.227418    1.319139    2.044200
H      -3.328206    1.316214    0.214611
H      -3.925843   -1.097801    0.182733
H      -3.846304   -1.196784    2.010906
H       1.487227   -1.317711   -0.811070
