23

C       0.365907    1.522459   -0.331456
C       0.064982    0.041800   -0.042904
C      -1.432299   -0.138772    0.221908
C       0.580143   -0.856153   -1.191305
C       2.102573   -1.016315   -0.962309
C       2.343480   -0.703488    0.540734
C       0.928403   -0.497986    1.145899
C       0.903985    0.309462    2.355476
C       0.885669    0.981011    3.353672
H       1.421285    1.693606   -0.564980
H      -0.221752    1.866155   -1.189356
H       0.111443    2.148057    0.528765
H      -2.026055    0.186902   -0.639144
H      -1.676461   -1.188695    0.418881
H      -1.750072    0.449513    1.089145
H       0.086654   -1.833618   -1.129739
H       0.340622   -0.441775   -2.175422
H       2.438866   -2.022089   -1.228000
H       2.670162   -0.324886   -1.591275
H       2.881526   -1.499491    1.061135
H       2.933179    0.208290    0.665024
H       0.521738   -1.488371    1.395537
H       0.871546    1.568770    4.237729
