18

C      -0.033548    1.661037    0.075738
C       0.040825    0.144081    0.011331
C       1.091387   -0.571671   -0.891413
N       1.613768   -1.392207    0.257910
C       2.140379   -0.416041    1.226150
C       0.679723   -0.615618    1.171555
O      -1.288208   -0.404572   -0.145984
C      -1.900224   -0.268880   -1.336512
O      -3.018779   -0.642483   -1.530138
H       0.943560    2.090243    0.310136
H      -0.364383    2.085225   -0.877829
H      -0.743124    1.967035    0.850322
H       0.643805   -1.223709   -1.642528
H       1.848184    0.063863   -1.363426
H       2.669624   -0.882251    2.051282
H       2.593456    0.504055    0.862817
H       0.106430   -1.095726    1.956909
H      -1.268032    0.210137   -2.107175
