17

C       0.038035    1.373280    0.958897
O       0.028122   -0.025907    1.136178
C       0.852557   -0.704362    0.194023
C       0.833339   -2.162849    0.502267
C       0.821441   -2.745117    1.746557
N       0.845509   -2.198947    3.001373
O       0.820577   -4.077142    1.645899
N       0.838269   -4.435245    0.274961
C       0.838952   -3.287896   -0.357783
H      -0.347503    1.656077   -0.032386
H      -0.609330    1.805040    1.725618
H       1.050670    1.791931    1.066780
H       0.489612   -0.523690   -0.830578
H       1.873814   -0.286714    0.247409
H       0.467433   -1.260781    3.013645
H       0.490088   -2.799841    3.731184
H       0.845885   -3.297544   -1.440159
