18

C      -0.070990    1.520861   -0.019999
C       0.073557    0.011568    0.062300
O       0.948858   -0.492328   -0.989280
C       1.883703   -1.280250   -0.256581
C       1.019341   -2.042084    0.773197
C       0.784777   -0.588086    1.288960
C       2.290079   -0.306825    0.908267
C       3.270451   -0.801408    1.852937
N       4.063894   -1.188263    2.600764
H       0.874286    2.039426    0.161017
H      -0.425223    1.805169   -1.014902
H      -0.803806    1.869611    0.714997
H      -0.914621   -0.452155   -0.057317
H       2.608733   -1.738074   -0.925918
H       0.158839   -2.589928    0.384088
H       1.599219   -2.654921    1.463118
H       0.389384   -0.359866    2.276861
H       2.550155    0.705708    0.594686
