17

O       0.023246    0.007502   -0.240845
C       0.005916    1.204222   -0.089745
C      -1.261374    2.070624    0.128190
C      -0.759038    3.492133   -0.096012
O      -1.094630    4.461106    0.889211
C      -0.072877    5.460279    0.820246
C       1.254470    4.739596    0.411479
C       0.741973    3.385955    0.033545
C       1.176215    2.123350   -0.005472
H      -2.082190    1.752105   -0.516081
H      -1.575857    1.956379    1.171238
H      -1.042099    3.861712   -1.097596
H      -0.337514    6.222323    0.073030
H      -0.014884    5.942412    1.798353
H       1.748428    5.250879   -0.421636
H       1.973803    4.684309    1.232676
H       2.191767    1.759297    0.085553
