17

C       0.174537    0.949785   -0.432231
O      -0.156937    0.042744    0.605514
C      -1.355433   -0.621186    0.386544
C      -1.561918   -1.649101   -0.703473
N      -0.274398   -2.314980   -0.981502
C      -0.244594   -2.837244    0.431787
C      -1.516927   -2.052552    0.779240
O      -2.495987   -2.518836    1.636337
H       1.123185    1.415886   -0.155653
H       0.291164    0.425920   -1.388381
H      -0.587557    1.736304   -0.541111
H      -2.255552   -0.025342    0.566063
H      -2.360919   -1.589873   -1.433490
H      -0.421079   -3.088440   -1.622503
H      -0.426311   -3.914098    0.486893
H       0.667484   -2.579480    0.977217
H      -2.437811   -2.025645    2.462347
