17

C      -0.208097    1.411439   -0.397193
O      -0.273658    0.016098   -0.547396
C      -0.989781   -0.613470    0.494786
C      -1.012550   -2.090951    0.258789
C      -0.435850   -2.749569   -0.802001
N      -0.682925   -4.091530   -0.648604
C      -1.409050   -4.303238    0.494606
C      -1.630078   -3.079617    1.081219
H       0.360044    1.806724   -1.243020
H      -1.209481    1.871967   -0.396175
H       0.299662    1.700540    0.537396
H      -0.521929   -0.380402    1.468844
H      -2.017616   -0.209556    0.544140
H       0.121952   -2.365911   -1.638779
H      -0.376222   -4.809102   -1.280694
H      -1.704719   -5.296405    0.792094
H      -2.173784   -2.908160    1.998310
