19

O       0.001116   -0.093717    0.029683
C      -0.020877    1.123463    0.029188
C      -1.329557    1.908627    0.046790
C      -1.203384    3.343624   -0.482463
C      -0.030403    4.023500    0.190362
C      -0.025226    5.484492    0.423538
N      -0.192018    4.552383    1.557842
C       1.279684    3.307761   -0.064150
N       1.129772    1.862592    0.058693
H      -2.061276    1.324085   -0.514978
H      -1.672177    1.921592    1.089156
H      -1.043046    3.327772   -1.568367
H      -2.127851    3.905596   -0.307564
H       0.910370    6.038095    0.423176
H      -0.885076    6.055400    0.082219
H      -1.171877    4.518298    1.832181
H       1.642421    3.566484   -1.071163
H       2.022089    3.660144    0.658975
H       1.967967    1.299239    0.041224
