15

C      -0.110537    1.522908   -0.311187
C      -0.020098    0.089883   -0.094818
C       0.033573   -1.102305    0.087219
C       0.124336   -2.526420    0.299679
O      -0.851625   -3.223495    0.518797
C       1.500527   -3.113911    0.242408
C       1.876701   -4.010022    1.385864
N       1.595077   -4.569475    0.071991
H       0.875662    1.968101   -0.477099
H      -0.734743    1.742543   -1.184173
H      -0.566854    2.016528    0.553666
H       2.265963   -2.520867   -0.247006
H       2.916065   -4.044389    1.699107
H       1.139306   -4.131723    2.174349
H       0.637077   -4.923524    0.070229
