17

O       0.052762    1.443579    0.397136
C       0.165748    0.100158   -0.074087
C      -1.213868   -0.563942   -0.138757
C      -1.874756   -1.331760   -1.257348
C      -0.975647   -2.424255   -1.904390
N       0.373117   -2.383508   -1.275167
C      -0.757781   -3.063718   -0.595257
C      -1.637459   -1.994594    0.105300
H      -0.347902    1.963847   -0.306036
H       0.671206    0.059632   -1.042182
H       0.804587   -0.414714    0.646904
H      -1.940368    0.096923    0.335310
H      -2.817963   -1.033411   -1.698445
H      -1.123073   -2.858698   -2.884280
H       0.932085   -3.108581   -1.725227
H      -0.702701   -4.109152   -0.321988
H      -2.372031   -2.254333    0.857354
