19

C      -0.072594    1.611547    0.059997
C       0.010785    0.087700    0.035050
C      -1.365497   -0.531385   -0.198526
O      -1.824855   -0.117855   -1.477599
C       1.079445   -0.588969   -0.876581
N       1.646493   -1.392752    0.267112
C       2.173585   -0.393371    1.212064
C       0.717230   -0.623671    1.196531
H       0.911015    2.069678    0.195147
H      -0.498554    1.981934   -0.876410
H      -0.716627    1.952193    0.879510
H      -1.287195   -1.627916   -0.138885
H      -2.054490   -0.202437    0.597562
H      -2.677622   -0.530240   -1.641095
H       0.656248   -1.240544   -1.642449
H       1.814458    0.076633   -1.341584
H       2.736723   -0.836162    2.028338
H       2.595401    0.530831    0.822878
H       0.206175   -1.116924    2.019976
