20

C      -0.043575    1.372942   -0.145930
C       1.422811    1.879664   -0.050262
C       2.150309    0.707874    0.636142
C       3.584866    0.371364    0.166972
C       3.832866   -1.157875    0.156131
C       2.841416   -1.890411    1.054284
O       1.494530   -1.691930    0.602340
C       1.152717   -0.410754    0.371763
N      -0.002535   -0.090265   -0.045234
H      -0.662242    1.771343    0.670187
H      -0.528953    1.673881   -1.080007
H       1.835012    2.027636   -1.054528
H       1.517387    2.826174    0.487304
H       2.172701    0.864013    1.724264
H       3.746648    0.773884   -0.837877
H       4.307768    0.870624    0.819372
H       3.711470   -1.552883   -0.858367
H       4.854114   -1.395192    0.471013
H       2.994775   -2.971135    1.025219
H       2.932779   -1.564955    2.100210
