19

C      -0.033762    1.448422    0.026929
N      -0.004837    0.000694    0.020879
C       0.018291   -0.812512   -1.072436
N       0.053173   -2.084244   -0.748496
C       0.054421   -2.112595    0.631793
C       0.060278   -3.406131    1.382213
C      -1.260853   -4.177092    1.226934
O      -1.257977   -5.413601    1.923146
C       0.017198   -0.830447    1.121444
H       0.854345    1.857050    0.519196
H      -0.055271    1.806722   -1.004073
H      -0.924372    1.820063    0.543142
H       0.011153   -0.410906   -2.075833
H       0.877724   -4.037481    1.008333
H       0.247287   -3.230962    2.446728
H      -2.080863   -3.592939    1.657813
H      -1.478751   -4.309628    0.157770
H      -0.605406   -5.982407    1.502413
H       0.008897   -0.438157    2.125553
