14

C      -0.048248    1.495146    0.004558
C      -0.003583    0.003737    0.024027
N      -0.023578   -0.675238   -1.091100
O       0.030541   -2.048418   -0.701481
C       0.081011   -2.121649    0.623347
N       0.185026   -3.346726    1.183628
C       0.060553   -0.852634    1.171972
C       0.088358   -0.525065    2.539420
N       0.107571   -0.278879    3.673211
H       0.840616    1.913184    0.487243
H      -0.097195    1.853843   -1.024639
H      -0.921433    1.861735    0.553229
H      -0.066494   -4.140298    0.616238
H      -0.001701   -3.422326    2.170614
