20

C       0.123060    1.501361   -0.155085
C      -0.020701   -0.000451    0.130311
C      -1.442296   -0.476450    0.060676
C      -2.217062   -0.842372   -1.187733
C      -3.621817   -0.281202   -1.081373
N      -3.863356   -0.340092    0.367751
C      -3.145990   -1.501749    0.925426
C      -2.028358   -1.869065   -0.089332
C      -2.585577   -0.132498    1.071045
H       1.167160    1.819584   -0.076779
H      -0.231538    1.745133   -1.161748
H      -0.461002    2.096869    0.554556
H       0.583121   -0.571590   -0.585798
H       0.393849   -0.225555    1.122074
H      -1.697801   -0.958041   -2.131847
H      -3.698963    0.755665   -1.424889
H      -4.369896   -0.885552   -1.604885
H      -3.646647   -2.158336    1.625137
H      -1.530267   -2.821704   -0.202467
H      -2.535580    0.546402    1.913654
