21

O      -0.045860    1.248150    0.206789
C       0.064841   -0.163387    0.025006
C       0.846226   -0.456257   -1.277877
C       2.171415    0.153618   -1.270772
C       3.244607    0.695155   -1.217942
C       0.672868   -0.814975    1.284914
C      -0.494205   -0.790911    2.280702
C      -1.704046   -1.212432    1.420110
C      -1.384544   -0.705028   -0.013542
H       0.851194    1.605858    0.203580
H       0.931451   -1.540029   -1.421912
H       0.270169   -0.063123   -2.124425
H       4.203034    1.152029   -1.196148
H       0.962727   -1.850733    1.063556
H       1.567950   -0.288407    1.627861
H      -0.338805   -1.439837    3.146747
H      -0.630574    0.231318    2.646535
H      -1.798598   -2.303718    1.419281
H      -2.647365   -0.814409    1.802465
H      -2.045469    0.104562   -0.330838
H      -1.477188   -1.510643   -0.748091
