19

C      -0.055066    1.530280    0.030683
C       1.303364    2.254390   -0.038996
C       2.360337    1.532927   -0.862922
C       3.041792    0.333991   -0.260155
O       2.428667   -0.221485    0.879666
C       1.200934   -0.810730    0.522745
C       0.039693    0.017853    0.013051
C       0.971281   -0.674229   -0.965047
C       2.143823    0.140043   -1.456927
H      -0.593850    1.859143    0.926302
H      -0.671896    1.828914   -0.826975
H       1.147832    3.257990   -0.445665
H       1.693052    2.384090    0.976796
H       3.008774    2.173701   -1.453689
H       4.120178    0.219144   -0.256648
H       1.002224   -1.714020    1.090012
H      -0.917364   -0.481212    0.148722
H       0.623442   -1.490652   -1.586198
H       2.539966   -0.077135   -2.440920
