14

C      -0.814590    1.128029    0.168207
N       0.464492    0.450717   -0.036438
C       0.968700   -0.247194    1.126147
C       0.134896   -1.396521    1.553358
N      -0.583465   -2.258021    1.829852
C       2.409086   -0.716517    0.857342
F       3.217074    0.326588    0.686763
F       2.867967   -1.441215    1.881039
F       2.459394   -1.472887   -0.246875
H      -0.691376    1.914214    0.920427
H      -1.109418    1.605196   -0.769026
H      -1.627528    0.461571    0.494163
H       0.409714   -0.193508   -0.818074
H       1.027735    0.456627    1.964497
