19

C       0.862878    0.538674   -0.500935
C      -0.134931    0.028835    0.510195
O       0.034612    0.144750    1.709009
C      -1.355779   -0.719446   -0.035334
N      -1.054201   -2.144437   -0.139055
C      -1.025477   -2.855030    0.930865
N      -1.214998   -2.427462    2.212494
C      -0.803116   -4.348472    0.735985
O      -0.763020   -4.693058   -0.615395
H       1.139317   -0.274534   -1.181007
H       0.400883    1.320899   -1.114984
H       1.747675    0.935774   -0.002577
H      -2.200243   -0.525028    0.641509
H      -1.614809   -0.352092   -1.032844
H      -0.983165   -1.463501    2.425995
H      -1.052938   -3.090241    2.954070
H       0.137312   -4.624322    1.244014
H      -1.611080   -4.888528    1.257393
H      -0.844509   -3.837815   -1.076996
