20

C       1.950399   -3.417077   -0.223391
C       0.791468   -2.421593   -0.088118
O       0.704868   -1.877793    1.220148
C       0.867701   -1.306573   -1.129983
C       0.371655   -1.542134   -2.530647
N      -0.327336   -0.618989   -1.675048
C      -1.647660   -0.972940   -1.167372
C       1.963860   -0.306880   -0.950911
O       2.760107   -0.312103   -0.039347
H       1.939624   -3.906846   -1.202581
H       2.913459   -2.915370   -0.098614
H       1.858057   -4.184645    0.549674
H      -0.146172   -2.967499   -0.232343
H       1.522789   -1.380974    1.357340
H       0.891300   -1.120515   -3.388676
H      -0.069965   -2.524370   -2.704024
H      -1.853258   -2.053041   -1.152887
H      -1.756523   -0.585161   -0.151596
H      -2.395464   -0.496195   -1.808211
H       1.971341    0.492018   -1.722253
