14

N       0.018861    1.512898    0.218393
C      -0.006720    0.085695    0.000731
C      -1.409825   -0.585980   -0.104742
N      -0.990270   -1.161935   -1.398129
C      -1.654028   -2.010581   -2.265828
O      -1.219329   -2.405449   -3.315218
C       0.267572   -0.508400   -1.412551
O       1.132322   -0.439033   -2.230774
H       0.977706    1.836127    0.298307
H      -0.386110    2.005764   -0.572912
H       0.622470   -0.401442    0.751174
H      -1.645253   -1.328356    0.661096
H      -2.228669    0.133287   -0.193848
H      -2.650950   -2.289608   -1.867730
