15

O      -0.504848    1.493906    0.189130
C      -0.147635    0.129527    0.104380
C      -1.372324   -0.773971   -0.042591
O      -2.226224   -0.721643    1.073931
C      -3.281229    0.182446    0.780498
C      -3.279734    0.275128   -0.728329
N      -4.157166    0.820949   -1.447104
O      -2.142696   -0.343070   -1.172427
H      -0.807898    1.769197   -0.682528
H       0.546263   -0.069224   -0.726304
H       0.357350   -0.129913    1.039759
H      -1.070391   -1.815888   -0.205590
H      -4.223286   -0.221596    1.158669
H      -3.103656    1.169294    1.223471
H      -3.916648    0.757183   -2.437086
