20

C      -0.176848    1.389070    0.096095
O       0.251022    0.046866   -0.058046
C       0.722831   -0.551949    1.125617
C      -0.366995   -0.724865    2.117955
N      -1.220506   -0.859335    2.885553
C       1.342775   -1.896287    0.762911
C       2.646888   -1.880737   -0.078192
C       3.175221   -3.047290    0.801425
C       2.099240   -2.688118    1.863982
H       0.635565    2.027287    0.474338
H      -0.474765    1.739007   -0.893949
H      -1.033725    1.466103    0.778655
H       1.489803    0.085625    1.599001
H       0.574620   -2.512714    0.287642
H       2.552778   -2.044610   -1.152822
H       3.214824   -0.958898    0.083919
H       2.982691   -4.021345    0.343715
H       4.221176   -3.011908    1.112504
H       2.499066   -2.021724    2.635485
H       1.564825   -3.502933    2.355398
