15

O      -0.057627    1.333078   -0.194908
C      -0.034390   -0.054386   -0.066429
C      -0.440888   -0.699710    1.252178
C      -1.368610   -0.711748    0.079253
C      -2.681803    0.045815   -0.010884
O      -3.412784   -0.701640   -0.990186
C      -2.779778   -1.868123   -1.264604
O      -3.193897   -2.717681   -1.984163
O      -1.594757   -1.934127   -0.593390
H       0.689927    1.697888    0.290580
H       0.705728   -0.582330   -0.666391
H       0.036832   -1.634127    1.524974
H      -0.696220   -0.043302    2.078629
H      -3.243817    0.042286    0.928988
H      -2.548590    1.071397   -0.358284
