16

O       0.016020   -0.018795   -0.090577
C      -0.014077    1.185996    0.025852
N      -1.137877    1.961024    0.141067
C      -0.900008    3.421979    0.069240
C       0.000299    3.738347    1.266872
C       1.111944    3.010799    1.255075
C       1.242340    2.111708    0.027291
C       1.043829    2.973257   -1.223940
C      -0.075285    3.690686   -1.197985
H      -2.010759    1.575595   -0.181991
H      -1.856081    3.941717    0.093040
H      -0.294770    4.447850    2.028316
H       1.873120    3.005496    2.024688
H       2.139842    1.499265    0.009986
H       1.761282    2.943723   -2.033619
H      -0.412231    4.378613   -1.962633
