25

C       0.068083    1.527788    0.016856
C       0.027287   -0.002874   -0.032216
C      -1.389164   -0.583423   -0.062267
C      -2.229642   -0.214176   -1.316593
C      -3.090230   -1.435269   -1.525630
C      -2.674531   -2.488597   -0.818121
C      -3.268345   -3.866380   -0.814566
C      -2.320176   -4.945729   -1.367092
C      -1.443833   -2.132833   -0.005202
H       1.097772    1.896956    0.055611
H      -0.409115    1.970205   -0.863842
H      -0.455175    1.907968    0.901669
H       0.576733   -0.357701   -0.915311
H       0.560495   -0.406684    0.838555
H      -1.932926   -0.205771    0.814110
H      -2.811411    0.704252   -1.177203
H      -1.583853   -0.036082   -2.191065
H      -3.933643   -1.448094   -2.209290
H      -3.546235   -4.139691    0.213739
H      -4.196746   -3.863666   -1.397077
H      -2.796000   -5.930984   -1.343419
H      -2.042434   -4.727090   -2.403147
H      -1.398193   -5.007168   -0.780314
H      -0.541712   -2.577666   -0.452373
H      -1.489395   -2.511709    1.023726
