16

O      -0.013527    0.221834   -1.008522
C      -0.018203    1.144318   -0.235291
O      -1.174612    1.449568    0.406956
C      -1.306865    2.636190    1.177223
C      -0.524671    2.623172    2.481411
N       0.156755    1.387318    2.832324
C       0.971250    2.557438    2.428460
C       1.660162    2.509430    1.122499
C       1.211006    1.956573   -0.010966
H      -1.016683    3.513175    0.583672
H      -2.377055    2.708642    1.386372
H      -0.966448    3.225450    3.273267
H       0.193097    1.265629    3.840520
H       1.511908    3.078042    3.213668
H       2.634709    2.990851    1.093981
H       1.854038    1.952664   -0.884716
