17

O      -0.018495   -0.035660   -0.201336
C      -0.010642    1.115590    0.159546
C       1.213602    1.961320    0.140109
C       1.243440    3.431481   -0.165969
C       0.024594    4.196250    0.370351
C       0.341492    3.683694    1.812557
C       1.564653    2.940906    1.265547
C       2.887569    2.894618    1.905324
O       3.118084    3.329955    3.008157
H      -0.937288    1.603833    0.524596
H       2.076359    1.417970   -0.237422
H       1.946797    3.803839   -0.901440
H       0.153576    5.276062    0.281782
H      -0.943636    3.929440   -0.060516
H       0.646077    4.483600    2.488376
H      -0.417479    3.078277    2.312691
H       3.688516    2.437944    1.279649
