20

O       0.038451    1.283604   -0.418521
C       0.035044   -0.055651    0.042649
C       0.335419   -1.098454   -1.078568
C      -1.177775   -1.449884   -1.147684
C      -1.422145   -0.611686    0.141689
C      -1.469634   -1.363169    1.456634
N      -0.453046   -2.437401    1.561795
C      -0.207748   -1.137250    2.217158
C       0.713507   -0.225776    1.425821
H       0.929827    1.487987   -0.721882
H       0.770513   -0.666261   -1.984426
H       0.950407   -1.930760   -0.733647
H      -1.677588   -1.029396   -2.022816
H      -1.421163   -2.510378   -1.069589
H      -2.204583    0.148483    0.088296
H      -2.418776   -1.507030    1.963001
H      -0.753427   -3.115142    2.257440
H      -0.195642   -1.098298    3.302219
H       1.730943   -0.625582    1.350706
H       0.763232    0.756648    1.907757
