15

C       0.294054    1.624646    0.101879
C       1.138421    0.488748   -0.332881
N      -0.252625    0.260030    0.124172
C      -0.394692   -0.319952    1.394780
N       0.142903    0.043845    2.537681
C      -0.326299   -0.862119    3.464410
C      -1.151783   -1.778375    2.871741
N      -1.187601   -1.416831    1.540085
H       0.519374    2.069426    1.065577
H      -0.162672    2.278373   -0.635083
H       1.306847    0.296178   -1.388065
H       1.927877    0.172344    0.342063
H      -0.043194   -0.798544    4.504071
H      -1.703212   -2.621614    3.251925
H      -1.709236   -1.849871    0.796792
