18

C       0.204826    1.566081    0.174835
C      -0.013790    0.058280   -0.026759
C       0.587058   -0.756026    1.129785
O      -1.399415   -0.237313   -0.191078
C       0.671744   -0.364551   -1.330288
O       1.869244   -0.230293   -1.477337
C      -0.158422   -0.959956   -2.452824
O       0.640724   -1.277868   -3.553682
H       1.271858    1.799674    0.183359
H      -0.274692    2.132897   -0.628095
H      -0.230363    1.883367    1.129054
H       0.151643   -0.432337    2.081745
H       0.375371   -1.820828    0.998283
H       1.669187   -0.614169    1.175049
H      -1.856906    0.019304    0.615692
H      -0.684445   -1.842906   -2.057682
H      -0.949434   -0.240171   -2.713911
H       1.542257   -1.028809   -3.294553
