15

C       0.003638    1.547668    0.076584
C      -0.014527    0.004820   -0.020346
C       0.735637   -0.567073    1.189781
O       1.842499   -1.026202    1.127654
C      -1.403030   -0.539145   -0.070238
C      -2.037561   -1.401457   -0.912836
N      -3.320940   -1.548868   -0.445336
N      -3.507111   -0.865802    0.588076
O      -2.265889   -0.177151    0.879753
H       1.034836    1.909158    0.074514
H      -0.523555    1.986825   -0.774138
H      -0.487389    1.887031    0.992436
H       0.523909   -0.323157   -0.913117
H       0.179208   -0.492311    2.149513
H      -1.683474   -1.910291   -1.792577
