15

O      -0.307338    1.365445   -0.158013
C      -0.130895   -0.013564   -0.092068
C      -0.520344   -0.733167    1.192845
C      -0.932221    0.073838    2.295192
C      -1.246550    0.820989    3.186203
C      -1.419548   -0.813345   -0.082408
O      -2.590877   -0.076421   -0.109726
C      -1.473356   -2.083490   -0.748498
C      -1.489041   -3.156467   -1.290690
H      -0.277688    1.718643    0.743429
H       0.720564   -0.382705   -0.655430
H       0.037026   -1.634142    1.425845
H      -1.554296    1.437529    3.994583
H      -2.322049    0.834825   -0.306752
H      -1.517353   -4.099835   -1.777574
