17

O      -0.006679    1.429758    0.060978
C      -0.008796    0.031227   -0.033194
C      -1.403799   -0.565694    0.043427
C      -2.451781   -0.222005   -0.990872
C      -1.820121   -1.583026   -0.994663
O      -0.954619   -1.873916   -2.061739
C       0.427988   -1.846709   -1.727735
C       0.749261   -0.431395   -1.275347
O       1.508738    0.317601   -1.846596
H       0.692848    1.725319   -0.542754
H       0.572031   -0.412374    0.801669
H      -1.765547   -0.733739    1.052438
H      -3.478503   -0.114633   -0.661054
H      -2.156174    0.443419   -1.794244
H      -2.397723   -2.446767   -0.672695
H       0.671270   -2.575946   -0.939443
H       0.985342   -2.088168   -2.634053
