17

N       0.563276    0.225189    0.349641
C      -0.621266    0.295024   -0.336618
O      -0.763231    0.871926   -1.392367
N      -1.661941   -0.391282    0.347430
C      -2.788266   -0.862314   -0.454541
C      -1.829959   -1.824559    0.133062
C      -0.870110   -2.795692   -0.553162
O      -1.073237   -3.756370    0.508082
C      -1.965086   -2.876083    1.227396
H       1.293302    0.842568    0.032853
H       0.535903    0.010409    1.332680
H      -3.766155   -0.721044   -0.002451
H      -2.729307   -0.671281   -1.522915
H      -1.191365   -3.180371   -1.528247
H       0.172100   -2.459821   -0.615405
H      -1.565274   -2.580298    2.205550
H      -2.962807   -3.313236    1.357292
