21

C       0.091069    1.453560   -0.082778
C       0.021740   -0.039134    0.057663
C      -1.308742   -0.802497   -0.138117
C      -0.747682   -2.128619    0.408158
C      -0.447254   -1.750294    1.882923
C       0.638430   -0.852909    1.270877
C       0.808075   -1.834887    0.086907
C       1.799278   -2.946240   -0.075356
O       0.876887   -0.778405   -0.878587
H       1.116505    1.811694    0.045425
H      -0.258334    1.761998   -1.073966
H      -0.542579    1.936240    0.668277
H      -2.147584   -0.422665    0.453017
H      -1.579994   -0.820777   -1.195871
H      -1.237796   -3.063307    0.138333
H      -1.257290   -1.297384    2.462385
H      -0.002889   -2.569539    2.455561
H       1.470727   -0.406139    1.814539
H       1.710114   -3.667407    0.743016
H       1.623958   -3.479018   -1.016359
H       2.822042   -2.557670   -0.088130
