16

C       0.005750    1.560206    0.014248
C       0.062351    0.052119   -0.070098
C       0.648729   -0.743160   -1.210414
C       1.936288   -0.111435   -1.748746
N       2.488611    0.031594   -0.358480
C       1.332389   -0.735275    0.168438
C       1.476241   -1.763788    1.142738
N       1.612144   -2.599699    1.932982
H       0.965523    2.006923   -0.251444
H      -0.766678    1.955638   -0.653385
H      -0.237060    1.874431    1.034034
H      -0.802832   -0.458433    0.347432
H       0.101904   -1.544283   -1.690471
H       2.507126   -0.815973   -2.359979
H       1.844400    0.838319   -2.285402
H       3.349054   -0.495059   -0.252864
