21

C      -0.060169    1.448275    0.036739
C       0.078053   -0.059686    0.000236
C       0.739086   -0.658446   -1.227683
C       1.462418   -0.641255    0.109763
O       2.571803    0.114482    0.450485
C       1.404109   -2.171825    0.198572
C       0.689861   -2.190104   -1.207850
C      -0.663267   -2.883015   -1.312942
O       1.562222   -2.642201   -2.234505
H       0.810886    1.934298   -0.410458
H      -0.951950    1.774730   -0.508274
H      -0.151186    1.812304    1.066681
H      -0.750387   -0.595748    0.464032
H       0.914919   -0.074244   -2.123183
H       2.497352    0.362167    1.379105
H       2.394106   -2.624537    0.115225
H       0.865695   -2.597137    1.053620
H      -1.372792   -2.514540   -0.566882
H      -1.090334   -2.725478   -2.308004
H      -0.554925   -3.963694   -1.155364
H       1.637022   -3.599827   -2.155759
