21

C      -0.001610    1.406445   -0.219979
C       0.073199   -0.087726    0.126310
C       0.765463   -0.318384    1.477031
C      -1.315880   -0.701771    0.113313
C      -2.017090   -1.213585   -1.123790
O      -1.084455   -1.832341   -2.021390
C      -0.758704   -2.846925   -1.035643
C      -1.647679   -2.166550    0.004426
O      -2.358099   -2.806886    0.997208
H       0.997598    1.852724   -0.255330
H      -0.476981    1.562593   -1.193227
H      -0.583573    1.954795    0.530741
H       0.662160   -0.579167   -0.656868
H       0.213308    0.168903    2.289409
H       0.830152   -1.384796    1.715454
H       1.781132    0.091339    1.473917
H      -2.028597   -0.222423    0.786136
H      -2.947081   -0.840413   -1.536936
H      -1.144129   -3.825841   -1.351407
H       0.316760   -2.922106   -0.839033
H      -2.905073   -3.489226    0.590472
