19

C      -0.320946    1.336149   -0.050922
O       0.255354    0.045014    0.103683
C       0.718204   -0.501341   -1.068324
C      -0.191978   -1.074161   -2.148984
O      -0.116385   -0.794895   -3.512487
C       0.797213   -1.966208   -1.470703
O       2.074290   -1.773081   -2.099721
C       2.166546   -0.407479   -1.562769
C       2.612552    0.631648   -2.571048
H       0.420592    2.074961   -0.383443
H      -1.147916    1.320396   -0.772560
H      -0.700469    1.630931    0.929585
H      -1.216201   -1.187233   -1.801326
H       0.703255   -1.208315   -3.816849
H       0.615787   -2.902335   -0.955589
H       2.845665   -0.431634   -0.700621
H       1.896805    0.730161   -3.388847
H       2.711152    1.604438   -2.077040
H       3.593502    0.366476   -2.979311
