25

C      -0.599056    1.990008   -0.259192
O      -0.471766    0.591499   -0.178039
C       0.279498   -0.006098   -1.230342
C       1.786010    0.167881   -1.010595
C      -0.115246   -1.487495   -1.276659
C      -1.540575   -1.778268   -1.725496
C      -1.850511   -1.446132   -3.174057
C      -2.206039   -3.006231   -1.143167
C      -2.650289   -1.628604   -0.713887
H       0.360670    2.514694   -0.139930
H      -1.043455    2.303900   -1.217128
H      -1.262290    2.301217    0.552275
H       0.003685    0.478127   -2.181951
H       2.093703   -0.324020   -0.082083
H       2.349500   -0.272828   -1.839228
H       2.064495    1.223657   -0.945796
H       0.584767   -2.007733   -1.944307
H       0.046227   -1.898157   -0.272490
H      -1.176971   -1.978797   -3.856946
H      -2.875506   -1.731603   -3.430608
H      -1.751001   -0.374286   -3.379802
H      -2.864992   -3.581261   -1.785646
H      -1.645167   -3.607984   -0.435154
H      -2.383710   -1.284300    0.277600
H      -3.613986   -1.272291   -1.063548
