19

C      -0.119362    1.433866    0.150074
C      -0.128630   -0.016826    0.032292
C      -0.139441   -1.219222   -0.043181
C      -0.162963   -2.672410   -0.196082
O      -1.345624   -3.116616   -0.866483
C       1.107630   -3.187546   -0.916969
C       1.102980   -4.717193   -0.934518
C       0.706144   -5.385948   -2.231720
O       1.367854   -5.338071    0.069001
H       0.478210    1.897136   -0.642484
H      -1.133885    1.841922    0.085680
H       0.302430    1.746604    1.111393
H      -0.193811   -3.152399    0.789062
H      -1.540590   -2.473950   -1.557149
H       1.146262   -2.762893   -1.925145
H       1.986507   -2.853135   -0.358478
H       1.377506   -5.082715   -3.043335
H       0.720753   -6.470785   -2.121005
H      -0.300694   -5.045899   -2.499286
