16

C       0.014756    1.560182    0.023065
C       0.003666    0.020662    0.063608
C       0.759188   -0.540186    1.279233
O       2.113693   -0.125996    1.145907
C       2.936965   -0.421914    2.175682
N       4.154688   -0.104855    2.111535
C      -1.364833   -0.503889    0.068389
N      -2.444856   -0.914178    0.089156
H       1.047581    1.912330    0.026674
H      -0.483549    1.925782   -0.877309
H      -0.502789    1.973659    0.893482
H       0.503329   -0.363835   -0.833920
H       0.321607   -0.149630    2.207425
H       0.691598   -1.634762    1.296046
H       2.433319   -0.933591    3.007159
H       4.636400   -0.391046    2.961172
