17

C      -0.272572    1.631183   -0.011690
C       0.030344    0.139735   -0.057243
C       0.565288   -0.574477   -1.312310
C       2.007615   -0.266868   -1.629395
C       2.734211    1.009883   -1.367014
O       3.436848    1.543150   -2.188295
C       1.680126   -1.265130   -0.512678
C       1.213235   -0.515674    0.715257
O       1.520584   -0.540286    1.871594
H       0.543893    2.240373   -0.406695
H      -1.169976    1.862745   -0.594149
H      -0.453760    1.941554    1.022092
H      -0.853316   -0.413372    0.291481
H      -0.056756   -1.027113   -2.073939
H       2.353339   -0.741867   -2.543882
H       2.621586    1.432681   -0.346083
H       2.068502   -2.275058   -0.551986
