18

C      -0.048011    1.592624    0.010633
C       0.098335    0.074284   -0.021374
C       0.853879   -0.514812   -1.222568
C       1.492496   -1.823171   -0.669763
N       1.688597   -1.475089    0.733876
C       0.868768   -0.470525    1.190337
O       0.778621   -0.098518    2.338494
C       0.643950   -3.006020   -0.851783
C      -0.045372   -3.979806   -0.998122
H       0.924129    2.083281   -0.107687
H      -0.706536    1.945753   -0.788406
H      -0.464282    1.902817    0.972482
H      -0.898336   -0.384223    0.040411
H       0.224915   -0.710137   -2.091710
H       1.659157    0.162634   -1.524735
H       2.459153   -2.009637   -1.151246
H       2.115606   -2.112434    1.388841
H      -0.655266   -4.840302   -1.124359
