17

C      -0.025856    1.519093    0.048296
C      -0.051343    0.023169    0.037085
N       1.151507   -0.730442   -0.301931
C       0.565038   -0.964930    1.032538
C       1.337462   -0.724598    2.204693
C       1.968411   -0.541147    3.211993
C      -0.688944   -1.820199    0.933461
N      -1.839689   -0.970266    1.329045
C      -1.283189   -0.866449   -0.042977
H       0.937492    1.878405    0.417411
H      -0.174119    1.920246   -0.960921
H      -0.820169    1.903811    0.694143
H       0.962178   -1.511744   -0.927810
H       2.528115   -0.372825    4.098327
H      -0.750854   -2.901509    0.965222
H      -2.679322   -1.551203    1.279248
H      -1.890793   -1.077185   -0.915492
