21

C       0.003096    1.751613   -0.031457
C       1.489257    1.503720    0.071542
C       1.078593    0.296440    1.045763
C      -0.061411    0.166964   -0.055673
C      -1.416565   -0.233327   -0.640740
C      -1.163998    0.405667   -2.084778
C       0.394052    0.388391   -2.296928
C       1.672282    0.840086   -1.335615
C       0.894940   -0.386371   -1.167054
H      -0.463725    2.088238    0.899249
H      -0.351021    2.352241   -0.865709
H       2.201823    2.269981    0.380902
H       1.760929   -0.550848    1.150574
H       0.767923    0.660903    2.027567
H      -1.576994   -1.313269   -0.724646
H      -2.280806    0.209479   -0.138184
H      -1.587545   -0.240825   -2.862098
H      -1.652066    1.378385   -2.186867
H       0.737215    0.192629   -3.309758
H       2.617332    0.873383   -1.870022
H       1.224349   -1.419935   -1.105758
