19

C      -0.352263    1.273269   -0.048736
O       0.321577    0.032264    0.079987
C       0.788128   -0.493456   -1.126582
C      -0.215789   -1.133223   -2.060852
C       0.718118   -1.990758   -1.233263
O       1.737795   -2.689214   -1.895694
C       2.932899   -1.955454   -1.985207
O       2.738480   -0.693347   -2.566516
C       2.040544    0.171783   -1.680604
H       0.321325    2.080387   -0.368713
H      -1.184152    1.209352   -0.763510
H      -0.747411    1.520743    0.938957
H      -1.260505   -1.102830   -1.772755
H      -0.013250   -1.093464   -3.125571
H       0.302909   -2.530498   -0.387118
H       3.388835   -1.839063   -0.985529
H       3.594889   -2.519884   -2.644324
H       1.816886    1.077466   -2.251835
H       2.678999    0.445373   -0.824972
