22

C      -0.055621    1.525530    0.051720
C       0.027429    0.016239    0.045015
C       0.916064   -0.789810   -0.973857
C       0.741093   -1.934236    0.092517
C       1.651099   -3.139016    0.165307
C       0.785184   -0.786147    1.142767
C      -0.779704   -2.173776   -0.067032
N      -1.626414   -1.670906    1.045612
C      -1.286443   -0.788840   -0.100755
H       0.939274    1.979546    0.108051
H      -0.541899    1.902825   -0.856078
H      -0.635232    1.882743    0.910452
H       0.512294   -0.961998   -1.977679
H       1.942613   -0.415737   -1.036939
H       2.703141   -2.841229    0.225729
H       1.425028   -3.748717    1.047422
H       1.537426   -3.779354   -0.717847
H       1.803525   -0.410399    1.271955
H       0.298499   -0.940805    2.104082
H      -1.145385   -2.969328   -0.707780
H      -2.572917   -2.020664    0.904506
H      -2.068922   -0.445271   -0.769238
