22

C      -0.002083    1.287379    0.248545
O       0.434274   -0.038867    0.080506
C       0.730060   -0.506307   -1.219135
C       0.321385    0.262108   -2.448626
C       1.782925    0.195181   -2.034594
C       0.610096   -2.029927   -1.170774
C      -0.861572   -2.435380   -0.990100
C       1.241654   -2.767929   -2.356311
H       0.714775    2.028333   -0.135885
H      -0.978602    1.470179   -0.221585
H      -0.102154    1.441891    1.326013
H       0.004525   -0.301796   -3.319359
H      -0.185789    1.212946   -2.339443
H       2.217583    1.097600   -1.617621
H       2.470461   -0.387066   -2.635581
H       1.152827   -2.328700   -0.264031
H      -0.952043   -3.511959   -0.812559
H      -1.304439   -1.908851   -0.141672
H      -1.446727   -2.194165   -1.885206
H       2.318325   -2.591705   -2.427308
H       1.093211   -3.846031   -2.239895
H       0.784092   -2.482233   -3.310367
