20

C      -0.014475    1.516713    0.021538
C      -0.128678   -0.003768   -0.106263
C       0.817972   -0.566222   -1.172994
N       0.758976   -2.009642   -1.278831
C       0.189465   -2.759668   -2.247575
C       0.325806   -4.082708   -1.880737
C       1.009255   -4.028463   -0.642096
N       1.343614   -5.096922    0.192293
N       1.274914   -2.775100   -0.280203
H       1.002155    1.817135    0.298432
H      -0.262812    2.018936   -0.920530
H      -0.693504    1.898783    0.789159
H       0.106492   -0.487811    0.846846
H      -1.157022   -0.288141   -0.359318
H       0.575422   -0.156467   -2.159044
H       1.851261   -0.284105   -0.941758
H      -0.264143   -2.304616   -3.114766
H      -0.015822   -4.952251   -2.418086
H       1.671770   -5.908586   -0.313427
H       2.021382   -4.820267    0.891269
