22

C       0.043030    1.348621   -0.680326
C      -0.105496   -0.065204   -0.112740
C      -1.548845   -0.461821    0.243578
C      -2.462130   -0.698621   -0.995383
C      -2.198386   -2.223674   -0.867091
C      -1.675995   -1.980959    0.573832
N      -2.125708    0.449673    1.229425
C      -1.732754    0.504210    2.526599
O      -0.872980   -0.193543    3.026452
H       1.090288    1.564097   -0.911786
H      -0.531260    1.481130   -1.604130
H      -0.298947    2.101115    0.036824
H       0.280410   -0.795866   -0.834281
H       0.495961   -0.170919    0.795657
H      -3.505447   -0.449779   -0.777369
H      -2.172790   -0.205839   -1.926782
H      -3.062128   -2.881647   -0.978931
H      -1.415910   -2.568087   -1.547628
H      -0.759153   -2.486198    0.881595
H      -2.444321   -2.159081    1.328685
H      -2.836172    1.096038    0.923713
H      -2.301131    1.265488    3.100005
