18

C      -0.064094    1.526662   -0.100615
C       0.044943    0.022292    0.023475
C       1.363002   -0.692724   -0.181582
C       0.713212   -0.686539    1.185696
C       1.368924    0.108939    2.299294
C       0.074444   -1.978778    1.661671
H       0.839009    2.036050    0.246807
H      -0.217323    1.817071   -1.146205
H      -0.908850    1.918195    0.477865
H      -0.823331   -0.501758   -0.370991
H       1.375772   -1.617444   -0.749930
H       2.246906   -0.077188   -0.322297
H       1.859101    1.014718    1.934094
H       0.636296    0.408581    3.058699
H       2.133100   -0.495318    2.802739
H       0.815444   -2.636455    2.132401
H      -0.710813   -1.783582    2.402285
H      -0.379810   -2.530504    0.832534
