21

C      -0.858818    1.278310    0.004334
C      -0.000458    0.006023    0.002785
C       0.832552   -0.140177   -1.267236
C       1.917248    0.842483   -1.680476
C       2.278476   -0.539954   -1.196238
O       2.946378   -0.729454    0.018290
C       2.262267   -0.553830    1.225861
C       1.894477    0.822992    1.721035
C       0.815489   -0.154792    1.282084
H      -0.231780    2.174898    0.013670
H      -1.494561    1.322031   -0.886341
H      -1.506429    1.311866    0.886862
H      -0.688256   -0.850082   -0.006726
H       0.272976   -0.570196   -2.093241
H       2.028458    1.066653   -2.736163
H       2.141326    1.676679   -1.026652
H       2.655178   -1.250033   -1.926020
H       2.629227   -1.272249    1.952438
H       1.991538    1.035038    2.780616
H       2.127206    1.664613    1.079873
H       0.244943   -0.594213    2.095539
