22

C      -1.710976   -1.322030    1.125617
C      -0.529825   -0.692388    0.374392
C       0.688585   -0.432732    1.253732
C       0.436021    0.435027    2.489515
C      -0.077390    1.802874    2.100414
O      -1.162695    2.240047    2.391666
C       1.761418   -1.471915    1.334667
N       2.014659   -0.202204    0.664632
C       2.217501   -0.208531   -0.776730
H      -2.119604   -0.638784    1.875088
H      -2.518423   -1.566957    0.429252
H      -1.411949   -2.246045    1.632002
H      -0.244723   -1.346105   -0.454285
H      -0.858418    0.253122   -0.077705
H      -0.280188   -0.031781    3.170851
H       1.392590    0.564110    3.007965
H       0.634217    2.398490    1.484400
H       2.305403   -1.647748    2.260172
H       1.631961   -2.357525    0.712183
H       1.692878   -1.010877   -1.316860
H       1.899502    0.752117   -1.194638
H       3.288610   -0.321959   -0.972390
