19

C      -0.178851    1.577928   -0.332550
C       0.131052    0.085670   -0.290974
C       0.914597   -0.645261   -1.367706
C       2.357833   -0.757833   -0.974796
C       2.587778   -0.105736    0.377761
C       3.087884    1.323441    0.556574
C       1.144329   -0.589950    0.667561
N       1.349023   -1.716714   -0.407193
H       0.675464    2.184745   -0.635551
H      -0.987901    1.772989   -1.045077
H      -0.515734    1.934056    0.647379
H      -0.809822   -0.463932   -0.162468
H       0.584742   -0.901415   -2.369501
H       3.106705   -1.098164   -1.682879
H       3.244932   -0.779796    0.941325
H       2.600868    2.034657   -0.111917
H       2.931912    1.665663    1.585718
H       4.164168    1.371564    0.357573
H       0.847563   -0.863315    1.679541
