18

C       0.029022    1.541064   -0.079523
C      -0.024444    0.042953    0.074606
N       0.355244   -0.762805   -1.190648
C      -0.848026   -1.572550   -0.978268
C      -0.913244   -2.057721    0.527623
C       0.293280   -1.854520    1.369002
C       0.775640   -0.621185    1.170126
C      -1.424406   -0.713336    0.084983
O      -2.684495   -0.186029    0.249228
H       1.041011    1.865123   -0.346661
H      -0.661416    1.885242   -0.856377
H      -0.247289    2.037660    0.856365
H       0.155426   -0.153295   -1.984139
H      -1.286375   -2.184065   -1.757784
H      -1.620175   -2.862457    0.695191
H       0.731388   -2.624685    1.992249
H       1.682368   -0.201964    1.588377
H      -2.882502   -0.155603    1.193090
