16

C       0.055191    1.515977    0.035189
C      -0.083882    0.038171    0.040466
C      -1.110870   -0.841190   -0.049786
O      -2.462396   -0.847804   -0.171324
C      -2.824533   -2.236111   -0.434649
C      -1.614648   -3.148511   -0.042315
C      -0.527185   -2.118810    0.022172
N       0.769322   -2.077536    0.150165
O       1.061540   -0.704792    0.164852
H       0.715252    1.848693   -0.772918
H      -0.924774    1.977127   -0.105229
H       0.477357    1.880749    0.977924
H      -3.730058   -2.449849    0.135670
H      -3.047758   -2.327138   -1.503401
H      -1.766210   -3.629148    0.929664
H      -1.444348   -3.933975   -0.781768
