20

C      -0.082556    1.621383    0.144448
C      -0.069716    0.098546    0.298805
C      -1.349036   -0.558925   -0.239333
C      -1.373548   -2.069033   -0.089386
C      -1.654955   -2.694382    1.273750
C      -2.691520   -2.785606    0.207868
C      -0.456223   -2.844539   -0.960178
O       0.276287   -2.372424   -1.795585
H       0.836979    2.068165    0.534984
H      -0.170981    1.910890   -0.908453
H      -0.925374    2.070840    0.682403
H       0.791636   -0.319761   -0.231186
H       0.053871   -0.163774    1.357584
H      -2.221084   -0.135669    0.275425
H      -1.460646   -0.312777   -1.302106
H      -1.111768   -3.593803    1.545121
H      -1.808631   -2.000553    2.092558
H      -3.570216   -2.154277    0.275012
H      -2.865660   -3.747906   -0.262358
H      -0.497359   -3.948144   -0.793002
