15

N       0.230324    1.014331   -0.501352
C       0.059338   -0.132431   -0.031629
O       0.929957   -0.987623    0.617621
C      -0.107691   -2.021712    0.717759
C      -1.120945   -1.086154    0.033009
C      -1.515407   -1.759856   -1.296831
N      -0.578034   -2.868432   -1.395047
C       0.159490   -3.157688   -0.278663
O       0.892183   -4.106253   -0.119559
H       1.189543    1.339513   -0.370127
H      -0.236999   -2.358718    1.744968
H      -1.970551   -0.723179    0.608380
H      -2.552902   -2.115194   -1.265230
H      -1.417989   -1.066844   -2.138277
H      -0.552024   -3.491117   -2.187493
