17

N       0.002123   -1.168646    0.112127
C      -0.031617   -0.011190    0.062611
C      -0.029017    1.414139   -0.003911
C      -1.183017    2.100910    0.052386
C      -1.199417    3.576578   -0.009485
N      -0.284782    4.294670    0.927692
C       0.026156    4.275408   -0.501700
C       1.202441    3.425047   -0.930355
C       1.310927    2.116003   -0.123186
H      -2.128656    1.574849    0.130252
H      -2.163323    4.036046   -0.204170
H      -0.704614    5.183553    1.188220
H      -0.128387    5.188992   -1.072244
H       1.082716    3.193029   -1.995887
H       2.135526    3.989557   -0.828738
H       1.680993    2.339162    0.882593
H       2.040989    1.449609   -0.590209
