19

C      -0.008447    1.485657    0.010436
C      -0.043240   -0.019723    0.016639
N       0.466196   -0.768609   -1.194420
C      -0.295837   -1.923181   -0.603818
C       0.485977   -2.180339    0.697910
N       1.844611   -1.584876    0.726693
C       0.669240   -0.789814    1.156669
C      -1.351798   -0.868560   -0.105490
O      -2.110310   -1.056654    1.063028
H       1.022857    1.842255   -0.074002
H      -0.582755    1.897786   -0.826540
H      -0.434107    1.883840    0.937436
H      -0.072838   -0.432650   -1.994366
H      -0.538233   -2.761533   -1.257103
H       0.220742   -2.999845    1.353239
H       2.299525   -1.924241    1.574170
H       0.553879   -0.469982    2.184659
H      -1.973834   -0.510266   -0.938637
H      -2.929946   -1.503225    0.830251
