19

C       0.011866    1.641593    0.064551
C       1.549701    1.354822   -0.002351
C       1.779927    0.630721    1.335717
C       1.981411   -0.864181    1.278088
C       2.492601   -1.528246    0.023607
O       1.998836   -0.907669   -1.158141
C       1.148048    0.181193   -0.942679
C      -0.079697    0.079493    0.008767
C       0.579208   -0.309078    1.343913
H      -0.360754    2.125556    0.970022
H      -0.382525    2.137705   -0.827071
H       2.275061    2.109372   -0.306265
H       2.083542    1.194520    2.209822
H       2.346571   -1.322740    2.193386
H       3.591934   -1.495651   -0.001481
H       2.196670   -2.587683    0.008037
H       0.862123    0.537861   -1.933422
H      -0.988922   -0.445347   -0.283993
H      -0.033594   -0.462550    2.224271
