25

C       0.102395    1.544128    0.158068
C       0.021570    0.016354    0.175621
O       0.473850   -0.507739    1.421126
C      -1.382141   -0.492534   -0.191807
C      -1.474177   -2.003505   -0.250283
C      -1.867308   -2.825793    0.954653
C      -2.780353   -2.776201   -0.249898
C      -4.105462   -2.045497   -0.132953
C      -2.846973   -4.010257   -1.131678
H       1.106694    1.872507    0.438790
H      -0.131572    1.945018   -0.833679
H      -0.610292    1.979505    0.870120
H       0.737283   -0.382790   -0.555043
H      -0.143374   -0.216582    2.101426
H      -2.098759   -0.088292    0.536212
H      -1.659617   -0.058344   -1.162479
H      -0.697300   -2.446633   -0.871356
H      -1.320685   -3.739245    1.164728
H      -2.179471   -2.287683    1.845006
H      -4.052109   -1.187879    0.542420
H      -4.446554   -1.680507   -1.109582
H      -4.880572   -2.717979    0.253633
H      -3.577933   -4.731589   -0.746195
H      -3.147015   -3.751415   -2.154588
H      -1.878034   -4.516309   -1.186757
