15

O      -0.055598    0.035298    0.466429
C      -0.019697    1.163268    0.051907
O      -1.183314    1.828564   -0.194032
C      -1.129703    3.034541   -0.960477
C      -0.058983    4.006451   -0.434455
C       1.245661    3.245292   -0.320591
C       1.237314    1.923631   -0.144566
C       0.043531    5.174282   -1.302668
C       0.117691    6.122266   -2.036723
H      -0.914841    2.796825   -2.009137
H      -2.126640    3.472682   -0.897219
H      -0.354541    4.341054    0.572247
H       2.171874    3.808404   -0.375322
H       2.144271    1.340053   -0.042296
H       0.184901    6.967287   -2.676868
