18

C      -1.047597    0.661581   -0.176129
C       0.279160   -0.029789   -0.038781
C       0.626360   -0.698914    1.267643
N      -0.355471   -1.734456    1.592945
C      -0.074044   -3.064735    1.060757
C       0.096382   -2.773707    2.511357
N       1.174654   -0.104810   -0.948163
O       0.792618    0.567450   -2.120339
H      -0.937709    1.737439    0.007909
H      -1.439908    0.546989   -1.188426
H      -1.756244    0.254761    0.547108
H       1.654932   -1.086431    1.201205
H       0.596506    0.043752    2.076872
H      -0.935481   -3.624100    0.707789
H       0.828651   -3.191466    0.466094
H       1.115897   -2.712046    2.888789
H      -0.636941   -3.116420    3.235861
H       1.538675    0.392895   -2.703455
