18

O       0.242029    1.406885   -0.132462
C       0.022487    0.029171   -0.075376
C      -1.344258   -0.618591    0.062748
C      -2.589834    0.177814   -0.270420
N      -2.338811    1.602107   -0.636038
C      -2.544735    0.585803   -1.692982
C      -1.252336    0.040975   -2.337648
O      -0.442461    1.017197   -2.957420
C      -0.537367   -0.756773   -1.231459
H      -0.649462    1.817421   -0.199322
H       0.820254   -0.464131    0.474511
H      -1.459908   -1.438872    0.761717
H      -3.515790   -0.057158    0.242174
H      -3.180620    2.157373   -0.515637
H      -3.434310    0.684134   -2.305730
H      -1.557653   -0.646549   -3.134766
H       0.031009    1.468620   -2.243862
H      -0.054817   -1.685504   -1.515971
