18

C      -0.017780    1.543910    0.008116
C      -0.000119   -0.002676    0.005617
C       0.752214   -0.518056    1.254863
C      -1.450088   -0.541107    0.010952
C       0.685244   -0.475173   -1.199311
C       1.252134   -0.865693   -2.195699
C       1.889405   -1.304385   -3.315477
C       2.454910   -1.693694   -4.309144
H       0.998582    1.947039    0.001843
H      -0.543765    1.930740   -0.868960
H      -0.528469    1.908105    0.905825
H       0.247592   -0.169629    2.162274
H       0.778660   -1.611013    1.272729
H       1.782267   -0.151579    1.270394
H      -2.001296   -0.190491   -0.865852
H      -1.461472   -1.634447    0.006481
H      -1.971871   -0.193695    0.908952
H       2.951944   -2.035817   -5.182399
