16

N       0.066339   -1.003410   -0.684734
C       0.020609    0.101824   -0.340375
C       0.023227    1.468333    0.089729
C      -1.124935    2.160016    0.031433
C      -1.379204    3.611777    0.329058
O      -0.550783    4.251274    1.272363
C       0.821691    4.231584    1.004348
O       1.435246    3.039371    1.407342
C       1.403363    1.982590    0.481278
H      -2.001758    1.634392   -0.340107
H      -1.355509    4.154936   -0.635536
H      -2.397697    3.718793    0.715621
H       1.016781    4.426932   -0.066280
H       1.258807    5.022040    1.617746
H       1.971944    1.167345    0.936183
H       1.932523    2.264426   -0.446290
