21

C      -0.190268    1.603599   -0.038173
C       0.025953    0.097790    0.007999
C       1.187380   -0.570571   -0.784531
C       2.486890    0.100762   -0.305327
C       3.553029   -1.024758   -0.272967
C       2.683584   -1.597510    0.857811
C       2.197013   -0.156061    1.232977
C       0.693064   -0.574882    1.224329
C       1.231719   -1.720785    0.306081
H       0.716121    2.149276    0.242799
H      -0.481244    1.934124   -1.041961
H      -0.985448    1.906500    0.652195
H      -0.910303   -0.427429   -0.219402
H       1.098204   -0.783028   -1.851134
H       2.721285    1.090094   -0.697990
H       3.704799   -1.617995   -1.181755
H       4.518947   -0.666514    0.096813
H       3.034493   -2.334605    1.579670
H       2.664572    0.476733    1.984966
H       0.187868   -0.734968    2.177224
H       0.713718   -2.659700    0.119789
