17

O       0.057129    1.438326   -0.025976
C       0.042798    0.047773   -0.035047
C       1.013872   -0.484220   -1.050072
O       1.687791    0.252744   -1.734603
C       0.014472   -0.663188    1.348619
C      -1.499947   -0.306752    1.557622
C      -1.863580   -1.761440    1.909114
C      -0.798198   -1.889169    0.802883
C      -1.351002   -0.640239    0.030946
H       0.709410    1.697866   -0.695913
H       1.086147   -1.584899   -1.144512
H       0.791483   -0.680308    2.114072
H      -1.882382    0.624728    1.970149
H      -1.581576   -2.113756    2.906339
H      -2.876154   -2.091998    1.657045
H      -0.385307   -2.795339    0.359228
H      -2.143739   -0.631011   -0.718349
