18

C       0.137110   -1.249915   -0.076589
C       0.067313   -0.049359   -0.054892
C       0.004041    1.395657   -0.004515
C      -0.309485    2.088908    1.361943
C       0.729291    3.182129    0.998066
C       1.626371    3.712464    2.121409
C       2.648671    4.635839    1.630270
N       3.447304    5.362390    1.218253
C       1.336885    2.212858   -0.049929
H       0.193750   -2.309898   -0.103153
H      -0.683033    1.767016   -0.772164
H      -1.340706    2.397471    1.543958
H       0.030193    1.468234    2.195989
H       0.240849    4.024709    0.499284
H       1.024108    4.229910    2.877956
H       2.124984    2.878538    2.629897
H       2.161934    1.630422    0.369354
H       1.643710    2.621737   -1.013587
