19

C       0.143180    1.422770   -0.047194
O      -0.218392    0.078465   -0.312785
C       0.632206   -0.590001   -1.217948
C       2.010142   -0.710602   -0.680269
N       3.094450   -0.752464   -0.283830
C       0.026182   -1.953476   -1.494100
N      -0.084420   -2.732525   -0.288279
C      -0.983387   -2.033988   -2.623013
C       0.397767   -2.637650   -2.775072
H       1.129795    1.491829    0.428907
H       0.151434    2.023011   -0.969261
H      -0.612780    1.821754    0.631554
H       0.705308   -0.025465   -2.161882
H      -0.784741   -2.324945    0.323426
H      -0.362716   -3.685379   -0.492227
H      -1.819722   -2.710035   -2.482522
H      -1.220820   -1.140284   -3.190610
H       1.105476   -2.153502   -3.439708
H       0.495657   -3.717886   -2.747573
