19

C       0.019668    1.392070   -0.136595
O      -0.033216    0.013058    0.142209
C      -1.323951   -0.572347    0.042191
C      -1.789256   -0.716070   -1.407178
C      -1.237678   -1.937046    0.754637
C      -0.755905   -1.816476    2.197524
O      -2.486995   -2.618471    0.674621
H       1.038110    1.724977    0.079895
H      -0.204053    1.621639   -1.188145
H      -0.679904    1.961400    0.496066
H      -2.048690    0.053348    0.598237
H      -2.723478   -1.280364   -1.438916
H      -1.955424    0.255808   -1.879989
H      -1.035525   -1.258021   -1.988038
H      -0.537563   -2.563585    0.188586
H      -1.448893   -1.198673    2.784658
H      -0.703726   -2.805463    2.660802
H       0.227679   -1.345350    2.238799
H      -3.091015   -2.189849    1.291315
