17

C       0.032058    1.509369    0.121683
C       1.385886    2.167372   -0.062860
O       2.452558    1.748864    0.792226
C       2.518038    1.388455   -0.591877
C       2.313853   -0.041949   -1.002465
C       1.753206   -1.143707   -0.128834
O       0.921110   -0.660420    0.914173
C       0.060786   -0.006965   -0.068531
C       0.904018   -0.567887   -1.225563
H      -0.359527    1.735300    1.120624
H      -0.670043    1.943080   -0.602756
H       1.358916    3.242526   -0.244010
H       3.296862    1.913101   -1.145572
H       3.033833   -0.415071   -1.725690
H       2.231874   -2.106276    0.007280
H      -0.946900   -0.430815   -0.016451
H       0.535332   -0.976143   -2.156362
