21

C      -0.071433    1.556745   -0.116383
C      -0.013626    0.027528   -0.050781
C       0.936605   -0.552043   -1.149568
C       2.273494   -0.659323   -0.438042
C       2.104896   -0.640175    0.880332
C       2.971410   -0.422972    2.092046
C       1.999310    0.325339    2.996226
C       0.743391    0.300764    2.538913
C       0.640020   -0.502466    1.259397
H       0.927179    1.991634   -0.004464
H      -0.479400    1.888072   -1.077144
H      -0.704634    1.968235    0.676064
H      -1.027683   -0.368610   -0.169038
H       0.584853   -1.531594   -1.504869
H       0.983454    0.096409   -2.032887
H       3.221772   -0.697184   -0.963023
H       3.293010   -1.363363    2.566219
H       3.885884    0.140396    1.872781
H       2.317044    0.787479    3.924800
H      -0.108930    0.734918    3.050010
H       0.195569   -1.485728    1.492175
