16

C      -0.029058    1.486175    0.011676
C      -0.000867   -0.004775   -0.035428
N      -0.010519   -0.738291   -1.124910
C       0.011516   -2.049100   -0.702692
C       0.036473   -2.114966    0.659855
N       0.037844   -0.798269    1.089843
C       0.022870   -0.356843    2.467327
C      -1.331941   -0.102696    2.984817
N      -2.391984    0.106937    3.391930
H       0.863708    1.904681    0.492606
H      -0.066403    1.855683   -1.013427
H      -0.905611    1.866022    0.548970
H       0.012800   -2.866601   -1.407116
H       0.055526   -2.935982    1.357589
H       0.503567   -1.114665    3.092700
H       0.610285    0.560879    2.567663
