21

O      -0.085414    1.455157    0.025289
C       0.012645    0.037137    0.007943
C       0.777538   -0.503057    1.222253
C       0.782727   -2.036992    1.254154
C      -0.657690   -2.601114    1.223968
C      -1.427543   -2.045819    0.001780
C      -1.412144   -0.512726   -0.021316
C      -0.660932   -4.060258    1.242992
C      -0.651899   -5.262714    1.239106
H       0.806645    1.814508    0.066808
H       0.532515   -0.295412   -0.908441
H       1.808901   -0.126702    1.212522
H       0.303198   -0.105851    2.129186
H       1.329893   -2.430425    0.388232
H       1.303993   -2.401339    2.144580
H      -1.172220   -2.246746    2.129775
H      -0.965192   -2.442368   -0.910901
H      -2.456755   -2.416864    0.016181
H      -1.949362   -0.114856    0.849464
H      -1.928510   -0.136313   -0.910122
H      -0.650515   -6.324396    1.245271
