19

C      -0.587912    1.187642    0.102710
C       0.163939   -0.134224    0.098287
C       1.019965   -0.575126   -1.143839
C       2.174412   -1.015764   -0.192081
C       1.457505   -0.241653    0.920728
O       1.805432    0.228483    1.965435
C       0.409038   -1.615380   -2.043896
C       1.175761   -2.719912   -2.631913
O       0.307746   -2.940984   -1.515344
H       0.066149    2.013557   -0.195717
H      -1.441568    1.164901   -0.582308
H      -0.963943    1.408822    1.105935
H      -0.496573   -0.963969    0.384409
H       1.303628    0.299801   -1.738778
H       2.136238   -2.093844   -0.001283
H       3.199029   -0.717933   -0.423178
H      -0.486937   -1.289467   -2.576432
H       0.851044   -3.167684   -3.569717
H       2.239659   -2.808953   -2.417341
