17

C      -0.078091    1.544940    0.203130
C      -0.122991    0.032967    0.361442
C      -1.309024   -0.727170   -0.099972
N      -0.023353   -0.841795   -0.813301
C       1.288210    2.072561   -0.066010
C       1.885852    2.711748   -1.101724
N       3.221308    2.955105   -0.796321
C       3.363549    2.458620    0.386395
O       2.242575    1.904603    0.907120
H      -0.725963    1.849107   -0.626861
H      -0.484614    2.012482    1.110129
H       0.430087   -0.339693    1.220835
H      -1.625227   -1.625268    0.422800
H      -2.118153   -0.168593   -0.565126
H      -0.043727   -0.283976   -1.664605
H       1.454301    3.019282   -2.041226
H       4.248366    2.430788    1.002624
