17

O      -0.036695    0.035393    0.322242
C      -0.005001    1.194603    0.026979
O      -1.138117    1.884599   -0.305768
C      -0.872871    3.234641   -0.742105
C       0.612686    3.508058   -0.461982
C       1.030982    4.113778    0.894439
C       0.428136    3.363123    2.050344
C       1.606149    2.764622    1.335769
C       1.182279    2.139597   -0.015663
H      -1.115190    3.292983   -1.808258
H      -1.544113    3.900728   -0.192654
H       1.122100    3.966885   -1.309169
H       1.453696    5.103278    1.015993
H       0.660730    3.780054    3.024875
H      -0.560094    2.915196    1.992896
H       2.536583    2.541480    1.840705
H       2.004244    1.723531   -0.596839
