21

C      -0.079816    1.538982   -0.088721
C      -0.061097    0.009431    0.006067
C      -1.433423   -0.587963    0.122823
C      -2.579291   -0.282210    1.129047
C      -3.127238   -1.171994   -0.004464
O      -2.409679   -0.328564   -0.984164
C      -1.876142   -2.086535    0.113446
C      -1.491608   -2.966188   -1.061829
O      -2.270857   -4.157578   -1.112254
H       0.931600    1.932998   -0.222324
H      -0.690812    1.863653   -0.935223
H      -0.497805    1.987116    0.818270
H       0.426914   -0.416500   -0.879124
H       0.525580   -0.316154    0.874383
H      -2.506714   -0.706225    2.133914
H      -2.942600    0.745871    1.120050
H      -4.161966   -1.430131   -0.234822
H      -1.771611   -2.619025    1.064331
H      -1.564598   -2.390911   -1.992617
H      -0.454472   -3.301593   -0.951475
H      -3.169748   -3.905347   -1.345045
