15

N      -0.076575   -1.190762   -0.182365
C      -0.043132   -0.038682   -0.094338
C      -0.006698    1.423030    0.023144
C      -0.616252    1.930218    1.329279
C       0.210583    2.760162    1.965150
C       1.520242    2.897609    1.266753
C       2.329238    1.617487    1.177281
C       1.418530    2.001809    0.043939
H      -0.563924    1.824962   -0.834757
H      -1.594067    1.607644    1.663158
H      -0.011835    3.260235    2.900676
H       2.031982    3.852740    1.241141
H       3.393838    1.707676    0.990531
H       2.047690    0.792768    1.823157
H       1.860383    2.282246   -0.903414
