21

C      -0.144206    1.578277   -0.140275
C      -0.138205    0.044316   -0.126268
C       0.793333   -0.531630   -1.162684
C       2.335343   -0.431968   -0.995239
C       2.468279   -1.949650   -1.345916
C       0.932003   -2.037758   -1.540597
O       0.220029   -3.026658   -0.858490
C       0.427593   -1.597056   -2.929389
O       0.403186   -0.208532   -2.525564
H       0.844785    1.983982    0.098615
H      -0.429763    1.949340   -1.128450
H      -0.853283    1.973652    0.592838
H       0.160477   -0.328934    0.860877
H      -1.148434   -0.336482   -0.314784
H       2.798885    0.259708   -1.700360
H       2.664734   -0.187266    0.017770
H       3.081733   -2.202996   -2.214705
H       2.795419   -2.550086   -0.493176
H       0.612796   -3.882759   -1.060377
H       1.087377   -1.770690   -3.789362
H      -0.578881   -1.972025   -3.154532
