19

C       0.074917    1.596392    0.100482
C       0.003365    0.069270    0.013087
C       0.668989   -0.479650   -1.255262
O       2.017967   -0.055059   -1.363392
C       0.575271   -2.028332   -1.357719
C      -0.868101   -2.565274   -1.440962
C       1.344997   -2.499514   -2.515417
N       1.919320   -2.901742   -3.433849
H       1.110175    1.941081    0.046890
H      -0.472018    2.061652   -0.726561
H      -0.363633    1.955280    1.035907
H       0.494243   -0.381210    0.889156
H      -1.042865   -0.252258    0.049070
H       0.175236   -0.053586   -2.137470
H       2.500059   -0.374519   -0.591672
H       1.055652   -2.449347   -0.462414
H      -0.865992   -3.646635   -1.595379
H      -1.413837   -2.354222   -0.519189
H      -1.403517   -2.106070   -2.277176
