21

C       0.028151    1.619858   -0.139487
C       0.017354    0.092765   -0.023548
C      -1.388307   -0.511917    0.102144
C      -1.396248   -2.081322    0.021094
C      -2.638756   -2.456131    0.838912
O      -2.579393   -3.365715    1.996502
C      -3.095179   -2.317962    2.875568
C      -2.779007   -1.317438    1.793323
C      -2.050730   -0.258470    1.464567
H       1.049387    2.001732   -0.233883
H      -0.534471    1.952181   -1.019036
H      -0.421807    2.096859    0.737647
H       0.502909   -0.339728   -0.907803
H       0.618719   -0.222100    0.839632
H      -2.001479   -0.102394   -0.715490
H      -1.396057   -2.457106   -1.006389
H      -0.507194   -2.467446    0.532456
H      -3.505982   -2.720934    0.219055
H      -4.159641   -2.477594    3.093780
H      -2.536461   -2.236746    3.813973
H      -1.827035    0.606397    2.078229
