16

C       0.019027    1.451540   -0.071242
N      -0.116323    0.018164    0.093234
C       0.575494   -0.674460    1.071805
C       1.203738   -0.033542    2.155346
N       1.839177   -0.677787    3.134261
C       1.892194   -2.008864    3.085710
C       1.312496   -2.745582    2.053549
C       0.649382   -2.075803    1.039451
H       1.061833    1.779432   -0.202388
H      -0.553232    1.758942   -0.949055
H      -0.394226    1.981458    0.793867
H      -0.255530   -0.496123   -0.761907
H       1.188231    1.049609    2.232150
H       2.418609   -2.505124    3.896474
H       1.381015   -3.828249    2.046400
H       0.183966   -2.622004    0.223214
