16

C       0.109296    1.247914    0.395523
O      -0.229366    0.264034   -0.592844
C      -1.244056   -0.539288   -0.270883
C      -1.354723   -1.848337    0.064812
O      -0.366871   -2.749711    0.245634
N      -2.686866   -2.182382    0.205729
C      -3.334724   -1.080954   -0.037151
C      -4.803143   -0.858810   -0.017618
O      -2.535486   -0.034313   -0.337954
H       0.976722    1.784800    0.008696
H      -0.718887    1.948527    0.546899
H       0.362559    0.766797    1.346781
H      -0.798200   -3.588521    0.447010
H      -5.079607   -0.099627    0.721901
H      -5.164529   -0.514895   -0.992493
H      -5.298784   -1.796676    0.234696
