22

C       0.106661    1.446737    0.093994
N      -0.087773    0.016454    0.162492
C      -1.374768   -0.499932    0.667433
C      -0.603460   -1.648763    1.341837
C       0.655536   -0.751945    1.178977
O      -1.046212   -1.957158    2.633810
C      -0.316724   -2.997009    3.268742
C      -1.063705   -3.331164    4.550417
O      -2.386868   -3.746915    4.280443
H       1.132906    1.666929   -0.218979
H      -0.570445    1.878037   -0.651136
H      -0.074858    1.957841    1.059080
H      -1.838323    0.141314    1.435281
H      -2.116105   -0.742240   -0.100722
H      -0.551113   -2.553500    0.721497
H       1.591578   -1.199782    0.828946
H       0.841968   -0.188767    2.109364
H      -0.275308   -3.882165    2.614781
H       0.714623   -2.679180    3.488078
H      -0.560920   -4.155374    5.066863
H      -1.043691   -2.453007    5.215683
H      -2.749160   -3.083822    3.680824
