21

C      -0.031105    1.618705    0.178705
C       0.028110    0.109275   -0.005952
C       1.097853   -0.482084   -1.001262
C       1.685115   -1.287380    0.173864
O       2.077375   -0.311298    1.160450
C       0.699941   -0.712710    1.108739
C       2.410477   -2.575699    0.161283
C       2.146014   -3.611796   -0.905892
C       3.448799   -2.857988   -0.901951
H       0.951944    2.000614    0.467745
H      -0.335797    2.118744   -0.746830
H      -0.749172    1.894980    0.958859
H      -0.961791   -0.297624   -0.237058
H       0.647761   -1.093508   -1.786794
H       1.790278    0.236294   -1.448002
H       0.268974   -1.108131    2.023053
H       2.627417   -2.949130    1.157278
H       2.147358   -4.653252   -0.604680
H       1.426045   -3.376791   -1.682129
H       3.598534   -2.105983   -1.669128
H       4.352313   -3.378244   -0.605216
