17

C      -0.032738    1.535167    0.011956
C       0.071850    0.017020    0.043131
C      -1.100014   -0.636755   -0.496698
N      -2.047087   -1.138749   -0.932554
C       1.348635   -0.773427   -0.222468
C       2.577698   -0.036115    0.322405
C       1.929880   -0.050959    1.746705
C       0.717539   -0.788278    1.165638
H       0.859822    2.008721    0.422668
H      -0.161555    1.889444   -1.014969
H      -0.893849    1.872109    0.596459
H       1.357803   -1.549178   -0.977877
H       3.476201   -0.654325    0.276989
H       2.806694    0.936416   -0.122095
H       2.491154   -0.676748    2.443059
H       1.737485    0.911909    2.228091
H       0.160689   -1.577359    1.655314
