22

C       0.041641    1.469474   -0.169539
N       0.026298    0.016992   -0.137750
C      -1.055863   -0.599057    0.078095
C      -1.109834   -2.109576    0.057016
C      -2.082962   -2.691044    1.090890
C      -3.443705   -1.995156    0.974232
C      -4.462396   -2.502872    1.997671
C      -3.225113   -0.491590    1.130184
O      -2.256332    0.051215    0.223897
H       0.960116    1.822385    0.310685
H       0.076789    1.811951   -1.211642
H      -0.823405    1.938813    0.311870
H      -1.443499   -2.409485   -0.946477
H      -0.093058   -2.484290    0.183100
H      -2.185061   -3.772105    0.947069
H      -1.687276   -2.542680    2.105240
H      -3.836647   -2.173116   -0.036728
H      -4.109548   -2.336630    3.022085
H      -5.427796   -1.996981    1.890186
H      -4.632738   -3.577076    1.876243
H      -4.143940    0.068456    0.934705
H      -2.909647   -0.270443    2.161560
