16

C       0.008764    1.523196    0.025126
C       0.015527    0.031658   -0.039174
C      -0.685286   -0.868031   -1.123914
C       0.379945   -1.907222   -0.936694
C      -1.007523   -2.145239   -0.372385
C      -0.959933   -1.821751    1.088897
O      -1.587840   -2.278836    1.996827
N       0.042590   -0.777602    1.213079
C       1.055767   -1.001432    0.144118
H       0.674350    1.872840    0.817958
H       0.341787    1.951845   -0.926332
H      -0.998614    1.901048    0.232569
H      -1.198089   -0.541654   -2.017043
H       0.863035   -2.552774   -1.654815
H      -1.671186   -2.897658   -0.772800
H       2.103718   -0.949047    0.409491
