17

C       0.117273    1.492589    0.268740
C      -0.007634    0.031527    0.047354
C      -1.054527   -0.774485   -0.287127
O      -2.324096   -0.330141   -0.513687
C      -0.557821   -2.117523   -0.360869
C       0.768501   -2.035788   -0.063369
C       1.842848   -3.071305    0.030130
O       1.566679   -4.196870   -0.785553
O       1.119299   -0.747425    0.176880
H       0.812441    1.959157   -0.439789
H      -0.863227    1.956604    0.138699
H       0.473874    1.724472    1.279469
H      -2.896764   -1.089434   -0.651532
H      -1.107485   -3.018025   -0.588451
H       2.810080   -2.601736   -0.208286
H       1.925992   -3.466690    1.050252
H       1.428797   -3.871854   -1.682041
