21

C      -0.023980    1.440288   -0.190368
C       0.006319   -0.047863    0.038572
O       1.299874   -0.684971   -0.001494
C       0.597103   -0.666119    1.230310
C       1.103758   -0.015693    2.525025
C       0.419384   -1.173940    3.322125
C       0.183338   -1.908701    1.991847
C      -0.828585   -2.952858    1.626802
C       0.641875   -3.296155    1.641064
H       0.755159    1.942438    0.388713
H       0.135466    1.670346   -1.249143
H      -0.996938    1.852745    0.099175
H      -0.768099   -0.612384   -0.485112
H       2.194466   -0.040215    2.588961
H       0.758940    0.999090    2.737044
H       1.049008   -1.688452    4.051681
H      -0.505847   -0.861032    3.814166
H      -1.455729   -3.347145    2.420296
H      -1.326082   -2.873471    0.665078
H       1.145660   -3.418017    0.688042
H       1.015090   -3.927484    2.441105
