23

C       0.006686    1.644526   -0.137822
C       0.013375    0.112572    0.018242
C      -1.326741   -0.465693    0.038119
C      -2.445106   -0.917988    0.046810
C      -3.778256   -1.449287    0.072380
C      -4.323342   -2.237444   -1.112550
C      -4.035928   -2.949239    0.178691
C      -2.898356   -3.941124    0.285492
C      -3.292634   -5.344389   -0.189052
H       1.029770    2.032678   -0.148304
H      -0.483928    1.937485   -1.070014
H      -0.532351    2.116232    0.688347
H       0.590401   -0.333829   -0.802287
H       0.546497   -0.156975    0.939595
H      -4.501913   -0.820540    0.584281
H      -5.352141   -2.058914   -1.405291
H      -3.639871   -2.401184   -1.938823
H      -4.908305   -3.204548    0.776474
H      -2.045648   -3.574191   -0.296131
H      -2.555374   -3.986617    1.327193
H      -4.123200   -5.745510    0.402556
H      -3.610493   -5.331642   -1.236981
H      -2.454125   -6.042151   -0.099562
