17

O      -0.106732    1.436103    0.100050
C       0.052526    0.075431    0.023134
C       0.054575   -1.029924    1.058389
C      -1.002925   -0.985787   -0.075642
C      -0.284905   -1.825283   -1.157169
C       0.437661   -2.989092   -0.435111
C       1.150717   -1.866718    0.361753
C       0.959491   -0.887254   -0.851197
O       2.003840   -0.593114   -1.695669
H       0.630000    1.799231    0.604896
H      -0.224684   -1.002154    2.103542
H      -2.061132   -0.903174    0.132342
H      -0.750417   -1.928213   -2.137587
H      -0.163426   -3.718965    0.114417
H       1.132083   -3.504215   -1.105056
H       2.106590   -2.006364    0.865050
H       1.657813   -0.102819   -2.450324
