20

C      -0.018308    1.451167   -0.293950
C       0.053048    0.040384    0.283438
N      -1.242367   -0.627628    0.128527
C      -1.641279   -1.334558   -1.059225
C      -0.468887   -2.067927   -1.731819
C      -0.290364   -2.819410   -0.384606
O       0.361594   -3.769441   -0.056090
C      -1.435915   -2.067770    0.275879
C      -2.369918   -2.608497    1.315858
H       0.923113    1.982717   -0.126223
H      -0.203527    1.424271   -1.372986
H      -0.828713    2.017956    0.172875
H       0.891573   -0.506244   -0.171198
H       0.253460    0.082668    1.359534
H      -2.589037   -1.089583   -1.525804
H      -0.777236   -2.775199   -2.507922
H       0.359390   -1.464741   -2.111734
H      -1.869830   -2.671318    2.288297
H      -3.237822   -1.953090    1.422566
H      -2.710462   -3.614554    1.052440
