22

C      -0.039946    1.554902   -0.055264
C       0.056588    0.026801    0.056477
C       0.797284   -0.389198    1.335241
C      -1.333931   -0.599412   -0.008332
C      -2.198665   -0.440204   -1.289380
C      -2.703224   -1.892805   -1.104789
C      -1.503051   -2.163320   -0.136154
C      -0.386956   -2.840405   -0.779125
N       0.499776   -3.373428   -1.297265
H       0.956148    2.008484   -0.049580
H      -0.541536    1.862563   -0.978302
H      -0.600906    1.976283    0.787732
H       0.630387   -0.342916   -0.804117
H       0.912567   -1.475358    1.401484
H       1.799445    0.049762    1.363926
H       0.259752   -0.048762    2.228671
H      -1.913810   -0.286296    0.868611
H      -2.945444    0.355877   -1.299777
H      -1.571333   -0.344125   -2.181090
H      -3.648267   -1.941871   -0.559413
H      -2.769102   -2.527189   -1.989317
H      -1.742601   -2.692941    0.788976
