19

C      -0.034767    1.493150    0.047267
C       0.017216   -0.016907   -0.004755
C       0.705971   -0.576180   -1.265418
O       0.770309   -1.994816   -1.231299
C      -0.465298   -2.598529   -0.876820
C      -1.030243   -1.926861    0.373118
C       0.038558   -1.771505    1.474622
O       0.664696   -0.527395    1.158497
O      -1.297686   -0.558970    0.042701
H       0.976851    1.899845    0.119601
H      -0.515628    1.893060   -0.849048
H      -0.605064    1.802427    0.925513
H       0.152906   -0.227669   -2.152025
H       1.739457   -0.225502   -1.327468
H      -1.200326   -2.509406   -1.692205
H      -0.252816   -3.658984   -0.707406
H      -1.958094   -2.394486    0.709799
H      -0.412760   -1.707329    2.471321
H       0.775918   -2.580555    1.461254
