16

C      -0.148962    1.485302   -0.028282
C       0.119581    0.018633    0.043362
C       0.802399   -0.873895   -0.887975
C       1.669815   -1.852785   -0.109093
O       1.355135   -1.618732    1.268383
C       0.119602   -0.922918    1.274965
C      -0.955563   -1.705158    0.484559
O      -1.823347   -2.478364    0.742032
N      -0.699644   -1.026268   -0.775761
H       0.678014    2.048054    0.418140
H      -0.262532    1.806107   -1.067097
H      -1.065682    1.745761    0.510058
H       1.104512   -0.552757   -1.878400
H       1.457214   -2.894665   -0.382914
H       2.735927   -1.656996   -0.264744
H      -0.099781   -0.562539    2.278441
