16

C       0.082889    1.485108   -0.044163
C       1.339567    0.683626   -0.002026
N      -0.005383    0.020592   -0.030283
C      -0.207030   -0.622430   -1.365846
C       1.062870   -0.301101   -2.092589
C       1.942212    0.403834   -1.326647
N       3.100956    0.682840   -2.002384
C       2.911220    0.146006   -3.190918
N       1.679394   -0.458871   -3.308089
H      -0.299605    1.962678    0.854707
H      -0.128513    2.014349   -0.971663
H       1.913221    0.589393    0.914821
H      -0.363053   -1.698464   -1.215445
H      -1.114340   -0.224000   -1.835996
H       3.618205    0.153556   -4.007299
H       1.336386   -0.948556   -4.117229
