23

C       0.227362    1.427506    0.380829
C      -0.057638   -0.025318   -0.021773
O       0.224556   -0.878088    1.107173
C      -1.576880   -0.211166   -0.227419
O      -2.302396    0.071524    0.952858
C       0.725767   -0.521102   -1.251120
C       0.668703   -2.025487   -1.485579
C       0.791836    0.339923   -2.492032
C       2.026258    0.151656   -1.645759
H       1.246521    1.541443    0.764789
H       0.102635    2.122708   -0.453954
H      -0.474477    1.713756    1.166060
H       1.118701   -0.686699    1.407911
H      -1.929827    0.478774   -0.999599
H      -1.776982   -1.234966   -0.570808
H      -1.853870   -0.425215    1.648934
H      -0.340527   -2.366205   -1.737325
H       1.322288   -2.303036   -2.317908
H       0.991048   -2.573320   -0.596777
H       0.740542   -0.163769   -3.451543
H       0.319330    1.315821   -2.485723
H       2.381421    1.005195   -1.081188
H       2.819276   -0.482508   -2.027870
