15

N       0.013807    1.359150    0.142198
C      -0.020532   -0.110160    0.006334
C      -1.463674   -0.554964   -0.010937
N      -2.088690   -0.913111    1.018560
O      -2.047268   -0.430611   -1.260866
C      -1.332983   -1.090981   -2.279403
O       0.023409   -0.686188   -2.394143
C       0.756619   -0.508634   -1.255515
O       1.952784   -0.514364   -1.307811
H       0.984502    1.661266    0.115630
H      -0.448705    1.785918   -0.656961
H       0.479448   -0.545963    0.871679
H      -3.060722   -1.134579    0.791359
H      -1.362681   -2.176122   -2.111834
H      -1.813697   -0.835817   -3.223482
