17

C      -0.218025    1.535023    0.074187
C       0.079568    0.030568   -0.029867
C       0.746289   -0.507581    1.214248
N       1.998739   -0.085722    1.445862
C       2.618197   -0.523148    2.542381
C       2.042361   -1.394244    3.463731
C       0.744806   -1.831545    3.223667
C       0.088164   -1.382029    2.083425
H       0.704062    2.086932    0.274370
H      -0.654044    1.912002   -0.855898
H      -0.921032    1.742769    0.887664
H      -0.844890   -0.524323   -0.222435
H       0.747113   -0.143696   -0.881260
H       3.633084   -0.160599    2.692846
H       2.597682   -1.716850    4.337153
H       0.252082   -2.512305    3.910552
H      -0.924301   -1.703641    1.863198
