20

C      -0.065959    1.471289   -0.178760
C       0.072476   -0.032903   -0.047236
N       1.248868   -0.872446   -0.332414
C       2.508098   -0.149905    0.083672
C       3.087770    0.952017   -0.786463
C       1.939995    0.009716    1.509577
O       2.383336    0.375670    2.561068
C       0.699605   -0.749664    1.102946
C       0.058958   -1.853119    1.890565
H       0.698538    2.032033    0.360650
H      -0.050363    1.775923   -1.230431
H      -1.035493    1.767932    0.235586
H      -0.813119   -0.552068   -0.414257
H       3.269051   -0.937157    0.185382
H       2.420187    1.803812   -0.914217
H       4.018651    1.314396   -0.338946
H       3.324442    0.553677   -1.778346
H      -0.483422   -1.440243    2.747843
H      -0.650378   -2.410120    1.272412
H       0.807210   -2.553474    2.274664
