20

C       0.099218    1.493954   -0.088963
C       0.097961   -0.019475    0.004203
O       0.725291   -0.530189   -1.188943
C       0.802464   -1.870075   -1.280132
O       0.397250   -2.625314   -0.427039
C       1.494560   -2.305017   -2.534568
N       1.683603   -1.280591   -3.533612
C       2.504054   -3.438088   -2.313012
C       1.189394   -3.709395   -2.987907
H       1.120034    1.881629   -0.152752
H      -0.452352    1.830618   -0.971106
H      -0.375576    1.920666    0.799585
H       0.651363   -0.379626    0.877280
H      -0.915781   -0.426197    0.070310
H       2.234043   -0.518190   -3.150481
H       2.200606   -1.658194   -4.321082
H       3.400519   -3.401426   -2.923188
H       2.639739   -3.806613   -1.302946
H       0.437688   -4.251302   -2.427252
H       1.180374   -3.876074   -4.060046
