17

C       0.105441    1.558492    0.133392
C       0.030122    0.064934    0.015604
C       0.560288   -0.769236   -1.199348
C       0.635946   -1.797415   -0.033103
O       0.986971   -0.690492    0.850392
C      -0.850683   -1.984112    0.299692
C      -1.277932   -0.710191    0.334744
C      -2.626339   -0.210365    0.559002
O      -2.963318    0.951282    0.462742
H       1.101280    1.911623   -0.147346
H      -0.644383    2.026685   -0.507925
H      -0.099923    1.868621    1.161722
H      -0.109237   -0.964287   -2.039777
H       1.549482   -0.440874   -1.526799
H       1.316482   -2.646085   -0.001868
H      -1.396223   -2.907366    0.439530
H      -3.362351   -0.999980    0.829044
