16

C       0.095329    1.263503    0.324355
N      -0.072910   -0.018584   -0.350200
C      -1.233368   -0.743527   -0.120049
N      -1.297719   -2.050709    0.011328
C      -2.641594   -2.342701    0.096398
O      -3.103635   -3.614943    0.253978
C      -3.391055   -1.210872    0.042312
O      -4.721074   -0.922531    0.106726
N      -2.472951   -0.170058   -0.086463
H       1.092851    1.648138    0.100769
H      -0.621229    1.995336   -0.064610
H      -0.027802    1.211184    1.416827
H       0.722392   -0.633753   -0.242925
H      -2.323463   -4.177499    0.311937
H      -5.169613   -1.703799    0.446869
H      -2.712199    0.789494   -0.266215
