16

N       0.121738    1.390702    0.145352
C      -0.012428    0.004429    0.031569
C      -1.178775   -0.681997   -0.008122
C      -1.211465   -2.145661   -0.015050
O      -2.257715   -2.788983   -0.047743
C       0.109651   -2.776512   -0.025546
C       1.248586   -2.045524    0.014517
N       2.547189   -2.552201    0.112553
N       1.200442   -0.662272    0.018369
H       0.771143    1.791497   -0.521782
H      -0.768589    1.866594    0.093625
H      -2.124186   -0.154802   -0.054210
H       0.153465   -3.857441   -0.085012
H       2.570011   -3.560769    0.048493
H       3.192809   -2.145283   -0.554548
H       1.992114   -0.178594    0.416386
