16

C      -1.540406    0.186128   -0.895015
C      -0.541867    0.585207   -0.359600
C       0.678018    1.060092    0.289991
N       0.897430    2.490483    0.038496
C       1.840934    2.814250   -0.715669
O       2.792775    2.017774   -1.370412
C       3.492377    3.215999   -1.795799
C       2.623199    3.998122   -2.708943
C       2.426851    4.100649   -1.190240
H      -2.424037   -0.166085   -1.366445
H       0.577374    0.928642    1.374377
H       1.526098    0.442441   -0.034797
H       4.570553    3.215982   -1.719975
H       3.069867    4.882698   -3.152649
H       1.890204    3.485258   -3.323169
H       2.480431    5.030254   -0.644279
