23

C      -0.019306    1.542584    0.097558
C      -0.020114    0.013576    0.022567
C       0.723534   -0.521460   -1.205551
C       0.739022   -2.043956   -1.309565
C       1.409438   -2.558628   -2.578832
O       1.467492   -2.529041   -0.148189
C       1.169774   -3.767441    0.296001
C       2.002313   -4.107955    1.510310
O       0.349106   -4.491676   -0.210418
H       1.002340    1.935910    0.144850
H      -0.501632    1.984628   -0.781618
H      -0.553766    1.898615    0.983685
H       0.439553   -0.402306    0.925819
H      -1.054868   -0.353499    0.006521
H       0.258456   -0.128951   -2.119014
H       1.759499   -0.157381   -1.202850
H      -0.278138   -2.443205   -1.246212
H       1.392525   -3.650381   -2.602831
H       0.878204   -2.188988   -3.461445
H       2.447960   -2.216796   -2.633737
H       1.801576   -3.394024    2.314325
H       1.764045   -5.117624    1.842505
H       3.066393   -4.033759    1.269163
