20

C       0.173325    1.556253    0.100694
C       0.086817    0.043740    0.005510
C       0.743458   -0.592808   -1.240151
C       1.250664   -1.945354   -0.724073
C       0.867851   -3.206420   -1.460829
C       2.539812   -1.892074    0.079574
C       1.204479   -1.817099    0.774388
O       0.769270   -0.532594    1.132149
H       1.217383    1.882708    0.064481
H      -0.367855    2.022910   -0.728564
H      -0.264669    1.909343    1.038483
H      -0.970838   -0.266391    0.045119
H       0.020158   -0.717614   -2.051544
H       1.558838    0.035614   -1.617117
H       1.341585   -3.250231   -2.448701
H       1.180222   -4.098411   -0.908259
H      -0.216742   -3.268343   -1.608987
H       3.110257   -2.811982    0.168622
H       3.132647   -0.983391    0.056528
H       0.864904   -2.614191    1.430298
