21

C      -0.008496    1.540591    0.131472
C       1.310809    0.823031    0.048182
C       0.014607    0.029419    0.035288
C       0.004993   -0.676226   -1.342266
C      -0.190629    0.353250   -2.489261
C       1.300590    0.713556   -2.697584
C       1.833561   -0.698170   -3.081361
C       1.524913   -1.002907   -1.598476
C       1.965803    0.456669   -1.278052
H      -0.267065    1.947499    1.104875
H      -0.347022    2.158306   -0.689765
H       1.959991    0.841960    0.918091
H      -0.313436   -0.537161    0.900334
H      -0.679210   -1.525269   -1.378451
H      -0.596887   -0.113642   -3.392137
H      -0.851281    1.179402   -2.232165
H       1.534567    1.598052   -3.291273
H       1.301887   -1.241175   -3.868340
H       2.908556   -0.715915   -3.279228
H       1.942099   -1.859663   -1.066384
H       3.042466    0.631903   -1.309881
