18

C      -0.267034    1.361391   -0.254750
O      -0.243197   -0.060021   -0.435633
C       0.848662   -0.538713   -1.065444
O       1.758007    0.153336   -1.447697
C       0.809901   -2.044758   -1.191617
C      -0.550038   -2.808565   -1.391563
C       0.005142   -3.339814   -2.718204
N       0.297980   -2.139632   -3.538269
C       1.285997   -2.604131   -2.536972
H       0.586362    1.688941    0.344670
H      -0.232170    1.871266   -1.220631
H      -1.202632    1.580322    0.260149
H       1.374236   -2.465050   -0.353365
H      -0.702341   -3.582198   -0.636828
H      -1.442522   -2.187061   -1.472981
H      -0.186558   -4.298858   -3.182405
H       0.624473   -2.462084   -4.448704
H       2.298068   -2.856243   -2.824336
