20

C      -0.043709    1.492546    0.004159
N       0.038963    0.036363    0.027845
C       1.381890   -0.517847   -0.195622
C       0.780355   -0.529953    1.163707
C       0.567643   -2.038142    1.416966
C      -0.608677   -2.575269    0.571141
C       0.022664   -2.562538   -0.855610
C       1.436185   -2.020659   -0.545805
O       1.708246   -2.611112    0.742957
H       0.852998    1.994087    0.405800
H      -0.189817    1.827326   -1.027640
H      -0.908184    1.812933    0.594130
H       2.190139    0.151482   -0.474139
H       1.113359    0.129826    1.959092
H       0.580877   -2.330148    2.466610
H      -0.857759   -3.589306    0.891652
H      -1.497025   -1.946777    0.639556
H       0.099017   -3.570013   -1.270588
H      -0.528292   -1.927233   -1.549644
H       2.223790   -2.297085   -1.246135
