14

C      -0.041696    1.450990    0.059906
N      -0.015692   -0.002375    0.029299
C       0.545219   -0.609197   -0.950240
C       1.202521    0.024006   -2.112361
N       1.771205   -0.555640   -3.105863
O       1.779300   -1.960431   -3.105123
C       1.202023   -2.609254   -2.083674
F       1.317639   -3.902169   -2.273282
C       0.597666   -2.054869   -1.027281
H       0.964993    1.893472    0.080567
H      -0.579169    1.884169   -0.796325
H      -0.558564    1.773927    0.966645
H       1.241341    1.105745   -2.192190
H       0.160712   -2.668690   -0.252845
