18

C      -0.037571    1.398255   -0.048964
N      -0.063003   -0.051391   -0.035315
C       0.517984   -0.629063    0.944230
N       1.149593   -0.045419    2.019978
C       0.523120   -2.115783    1.013788
N       1.185175   -2.770886    1.885015
C       0.929376   -4.192412    1.619247
C      -0.005907   -4.188452    0.381289
O      -0.209436   -2.784460    0.100749
H       0.985600    1.796902   -0.155402
H      -0.619363    1.766082   -0.897353
H      -0.460814    1.832130    0.870794
H       1.501049    0.890772    1.906931
H       1.709582   -0.672960    2.578878
H       1.872925   -4.716163    1.433452
H       0.467484   -4.658978    2.496130
H       0.438816   -4.651104   -0.504121
H      -0.982667   -4.643098    0.565864
