14

C      -0.007267    1.471889    0.010617
C      -0.007876    0.019617    0.002828
C      -0.026149   -1.186715   -0.003541
C      -0.003203   -2.607481   -0.011535
C       1.216575   -3.313967   -0.022182
N       1.266588   -4.637157   -0.029646
N       0.119896   -5.320030   -0.026899
C      -1.013370   -4.618813   -0.016712
N      -1.152299   -3.291440   -0.008725
H       1.012542    1.869806    0.002970
H      -0.532287    1.865458   -0.866535
H      -0.515229    1.855903    0.901941
H       2.167774   -2.791677   -0.024639
H      -1.926435   -5.207915   -0.014694
