20

C      -0.130220    1.620406    0.196495
C       0.027562    0.106876    0.129816
C       1.142240   -0.568083   -0.736724
C       2.170328   -0.118870    0.346944
C       0.940044   -0.668619    1.138411
C       0.932545   -1.863317    0.136145
C      -0.291909   -2.754110   -0.051324
O       2.062085   -2.707356    0.305453
H       0.807089    2.164319    0.328861
H      -0.598783    1.990830   -0.722359
H      -0.789704    1.893878    1.028009
H      -0.966461   -0.325767    0.001137
H       1.254869   -0.515684   -1.822801
H       3.087250   -0.697458    0.416100
H       2.366751    0.948941    0.425003
H       0.822984   -0.733111    2.222475
H      -1.233825   -2.216611   -0.160539
H      -0.166474   -3.369502   -0.952048
H      -0.379610   -3.434439    0.801290
H       2.067188   -3.340078   -0.419785
