18

N       0.547706    0.155276   -0.890947
C      -0.277723    0.283723    0.188872
O      -0.217798    1.239226    0.943272
C      -1.329263   -0.774227    0.409315
C      -1.956366   -1.603319   -0.694654
C      -1.124538   -2.285868    0.347496
C       0.172888   -2.953638    0.011213
C       0.241034   -4.002558   -1.019436
O       0.760388   -2.693184   -1.269787
H       1.298411    0.824958   -0.945193
H       0.657617   -0.719012   -1.381566
H      -1.993930   -0.446800    1.199861
H      -3.032185   -1.735831   -0.682935
H      -1.523276   -1.509637   -1.684434
H      -1.660868   -2.825735    1.124693
H       0.903739   -2.995375    0.819352
H       0.992162   -4.786807   -0.951001
H      -0.660155   -4.255299   -1.574406
