19

C       1.279315    0.847311   -0.637655
C       0.102623    0.149927   -0.006140
O       0.323022   -1.109375    0.651932
C      -0.111244   -0.000399    1.439302
C       0.830283    0.535143    2.496190
O       0.626870    1.933310    2.515987
C       0.769089   -0.168667    3.878376
O       2.175963   -0.465946    3.843137
C       2.304509    0.050881    2.501886
H       2.146478    0.886512    0.022742
H       1.572102    0.334603   -1.559796
H       1.001647    1.874475   -0.894995
H      -0.797974    0.149370   -0.623444
H      -1.143938   -0.074354    1.787046
H       1.114052    2.300540    3.261959
H       0.493397    0.486386    4.715952
H       0.154008   -1.077215    3.914658
H       2.533978   -0.738325    1.780162
H       3.045277    0.857932    2.431765
