16

C      -0.066658    1.451814    0.005404
N       0.025197    0.006513   -0.010649
C       0.106753   -0.793401   -1.126810
O       0.042094   -0.168354   -2.335858
C       0.243665   -2.105232   -0.754471
C       0.243803   -2.105281    0.685035
O       0.414320   -3.164604    1.555526
C       0.113090   -0.811460    1.099166
O       0.072415   -0.253430    2.339330
H       0.922751    1.923262   -0.021410
H      -0.636347    1.785779   -0.863006
H      -0.577533    1.764521    0.917231
H       0.048020   -0.844217   -3.019595
H       0.343167   -2.958850   -1.406406
H      -0.308482   -3.788107    1.426397
H       0.162837   -0.983223    2.963358
