18

C      -0.056359    1.635896    0.099454
C       0.190412    0.130491    0.216881
C       0.680585   -0.509064   -1.082249
C       0.558352   -2.059595   -1.163551
C      -0.502511   -1.773851   -2.200671
N      -1.263857   -2.481472   -2.899784
O      -0.364814   -0.402302   -2.134016
C       1.944045    0.037592   -1.550495
C       3.002075    0.473517   -1.917386
H       0.866485    2.168743   -0.146346
H      -0.788876    1.844227   -0.685278
H      -0.440940    2.036125    1.041582
H       0.933600   -0.080201    0.995243
H      -0.733922   -0.382688    0.506024
H       1.438586   -2.578453   -1.542664
H       0.202585   -2.543399   -0.252468
H      -1.854719   -1.907789   -3.504070
H       3.933282    0.861671   -2.250378
