18

C      -0.135865    1.561978    0.009513
C       0.060641    0.034080    0.033260
C       0.755127   -0.486631   -1.192423
C       2.050487   -0.888793   -1.207197
C       2.660289   -1.361396   -2.413219
N       2.024065   -1.440878   -3.542411
N       0.737052   -1.050420   -3.518348
C      -0.010264   -0.563851   -2.440195
N      -1.247394   -0.217739   -2.503340
H       0.825950    2.081651   -0.048501
H      -0.743914    1.851122   -0.849629
H      -0.644786    1.890602    0.920619
H       0.638738   -0.252205    0.918507
H      -0.922399   -0.443171    0.101141
H       2.643354   -0.855865   -0.298159
H       3.696968   -1.677860   -2.433573
H       0.276217   -1.129455   -4.413252
H      -1.630696   -0.342644   -3.441433
