20

C       0.011613    1.504225    0.194158
C      -0.088287   -0.002096   -0.071584
C       0.695283   -0.491879   -1.293221
C       0.186293    0.086487   -2.613553
C       2.276044   -0.427150   -1.189920
C       2.305071   -1.953002   -1.322463
O       1.544580   -2.488969   -0.230223
C       0.839339   -2.031919   -1.387282
H       1.054132    1.820508    0.310209
H      -0.425578    2.095077   -0.616918
H      -0.517261    1.770301    1.114630
H       0.276978   -0.552758    0.801452
H      -1.144078   -0.280273   -0.196623
H       0.332931    1.169797   -2.660403
H       0.712515   -0.355396   -3.467047
H      -0.884029   -0.113547   -2.742436
H       2.729647    0.097199   -2.034747
H       2.693408   -0.043591   -0.255528
H       3.068314   -2.593092   -1.749643
H       0.181976   -2.740333   -1.881458
