22

C      -0.062043    1.580793    0.167197
C       0.009712    0.053436    0.020602
C       0.725044   -0.565387    1.231062
O      -1.314309   -0.488718   -0.078398
C       0.720090   -0.376380   -1.276500
C       0.077215    0.132330   -2.570240
C       0.712189   -0.482615   -3.810183
O       0.086147    0.085598   -4.951751
H       0.936816    2.029520    0.166033
H      -0.643636    2.024580   -0.643802
H      -0.542559    1.850227    1.115453
H       0.207092   -0.303134    2.161217
H       0.739977   -1.655711    1.146120
H       1.756687   -0.207708    1.314032
H      -1.806894   -0.206605    0.699342
H       1.766915   -0.051912   -1.222008
H       0.732177   -1.473860   -1.288016
H      -0.991736   -0.099725   -2.564621
H       0.168897    1.221302   -2.651654
H       1.797539   -0.283995   -3.813589
H       0.584429   -1.577579   -3.789692
H       0.471919   -0.315155   -5.735950
