16

C      -0.255228    1.447686   -0.637268
C      -0.054607    0.057376   -0.081217
C       1.089538   -0.765881   -0.525445
O       1.102106   -0.129651    0.755921
C      -1.261638   -0.623594    0.443819
C      -2.592916   -0.651151    0.091710
N      -3.257649   -1.480151    0.945740
N      -2.415748   -1.963050    1.813989
N      -1.207792   -1.453825    1.512613
H       0.697815    1.862430   -0.972777
H      -0.945107    1.425547   -1.486884
H      -0.677165    2.108803    0.125083
H       1.009690   -1.851238   -0.509844
H       1.787265   -0.356693   -1.254433
H      -3.101170   -0.141509   -0.710336
H      -0.400775   -1.647813    2.085764
