14

O      -0.017880   -0.027694    0.218124
C      -0.045439    1.168103    0.090816
C      -1.327882    2.001629    0.031787
N      -1.263961    3.043473   -0.986640
C      -0.201191    4.015736   -0.759000
C       1.187219    3.371685   -0.775790
O       2.153799    3.854670   -1.304340
C       1.275840    1.966208   -0.112040
O       2.327926    1.526828    0.267321
H      -2.170943    1.331225   -0.152933
H      -1.492108    2.478287    1.008377
H      -1.195697    2.640560   -1.915739
H      -0.228910    4.803681   -1.515758
H      -0.365982    4.490008    0.218665
