16

C      -0.041815    1.580555    0.033348
C       0.011023    0.083824    0.025675
C       0.673784   -0.791243   -1.036185
O       1.140278   -1.747139   -0.036931
C       0.623229   -0.928412    1.005636
C       1.310702   -0.781802    2.243456
N       1.832393   -0.660076    3.269970
C      -0.887121   -0.796744    0.859914
O      -1.565515   -0.107844    1.853010
H       0.949270    2.012250   -0.135985
H      -0.709320    1.941223   -0.757880
H      -0.426317    1.944834    0.987425
H       0.025107   -1.261280   -1.782866
H       1.525349   -0.307128   -1.526124
H      -1.404643   -1.644782    0.405115
H      -1.588537   -0.651381    2.648949
