18

C       0.127024    1.520390   -0.216896
C       0.021433    0.011846   -0.099177
C       1.310875   -0.807878   -0.061432
C       0.511998   -0.654682    1.185735
C      -1.127005   -0.683055   -0.749576
O      -1.275732   -1.892173   -0.695898
C      -2.164692    0.131577   -1.515165
O      -3.154946   -0.693033   -2.047505
H       1.016733    1.877647    0.309048
H       0.213158    1.845281   -1.259255
H      -0.737336    2.027639    0.224769
H       1.281291   -1.769233   -0.560211
H       2.236815   -0.252906   -0.164080
H       0.873961    0.008575    1.963527
H      -0.054927   -1.513009    1.525914
H      -2.593474    0.883214   -0.831337
H      -1.648198    0.700570   -2.306364
H      -2.899612   -1.590195   -1.773962
