19

O      -0.018881    1.192166   -0.225925
C       0.101948   -0.206396    0.044951
C       0.841898   -0.399178    1.395087
C       2.147876    0.249667    1.396251
C       3.207753    0.816864    1.341363
C      -1.326612   -0.801580    0.066078
C      -1.534582   -1.479656   -1.310293
C      -0.130254   -1.603855   -1.848046
C       0.755930   -0.937279   -1.112879
H       0.872336    1.563772   -0.218199
H       0.220850    0.026299    2.192875
H       0.953012   -1.469773    1.603446
H       4.152999    1.300650    1.322667
H      -1.402940   -1.547758    0.862855
H      -2.051449   -0.012886    0.276185
H      -2.039681   -2.448457   -1.223887
H      -2.152925   -0.870194   -1.982168
H       0.098687   -2.155751   -2.753871
H       1.818476   -0.852642   -1.312705
