25

C      -0.528896    1.324439   -0.953584
C       0.688205    0.678774   -0.278357
C       1.544082   -0.087604   -1.271815
C       2.667862   -1.062771   -1.002356
C       2.419745   -2.032872    0.162726
C       2.526893   -1.567458    1.611918
C       1.036946   -2.405752   -0.472078
C       1.366601   -1.522590   -1.691962
C       1.125486   -1.949329   -3.112968
H      -0.221438    2.018649   -1.743750
H      -1.171096    0.565846   -1.413704
H      -1.133468    1.885841   -0.234239
H       1.296601    1.456832    0.201200
H       0.342622    0.024766    0.526666
H       1.798573    0.532790   -2.133442
H       3.642810   -0.900855   -1.452522
H       3.088386   -2.891193    0.032212
H       1.880079   -0.713726    1.827501
H       2.254912   -2.375525    2.300947
H       3.555222   -1.268439    1.845304
H       0.959421   -3.467243   -0.721327
H       0.143304   -2.127651    0.097004
H       0.055684   -1.942192   -3.357998
H       1.627425   -1.278998   -3.818820
H       1.495682   -2.965468   -3.295551
