18

C       0.157537    1.526938   -0.027213
C       1.425411    0.743373    0.188171
C       0.095632    0.020856    0.024174
C      -0.498545   -0.627963    1.207355
C      -0.886286   -1.890573    1.362418
C      -0.820572   -3.035849    0.396088
N      -0.332128   -2.896913   -0.952577
C      -0.063106   -1.841449   -1.579005
O      -0.095394   -0.516560   -1.268772
H      -0.267287    2.081569    0.801775
H       0.003713    1.970569   -1.003478
H       2.113839    0.663674   -0.644802
H       1.885847    0.742340    1.169419
H      -0.589519    0.042200    2.059321
H      -1.291714   -2.173734    2.332869
H      -0.230073   -3.834884    0.871378
H      -1.827045   -3.476363    0.313621
H       0.215075   -1.919620   -2.630893
