19

C       0.042548    1.615148   -0.032198
C       1.188584    0.633840    0.135213
C      -0.226032    0.147794   -0.042269
O      -0.909494   -0.376786    1.072748
C      -1.118412   -1.763433    0.811823
C      -1.476545   -1.820402   -0.678932
C      -0.628124   -0.685451   -1.248418
C      -0.732967   -0.205598   -2.627671
O       0.381263   -1.006085   -2.209991
H      -0.288109    2.155185    0.848158
H      -0.039616    2.170078   -0.960543
H       1.871880    0.490255   -0.693681
H       1.617173    0.532286    1.125641
H      -0.203591   -2.339584    1.018552
H      -1.911271   -2.111296    1.477178
H      -1.240347   -2.771342   -1.160598
H      -2.540601   -1.606139   -0.819743
H      -1.426038   -0.690175   -3.315582
H      -0.499487    0.830391   -2.868834
