23

C      -0.137303    1.528551   -0.395809
C      -0.025463    0.118724    0.198178
C      -1.356799   -0.607854    0.188960
C      -1.816076   -1.413468   -1.000640
C      -1.512261   -2.113199    0.305253
C      -0.307141   -3.040625    0.367931
O      -0.493932   -4.235404   -0.368702
C      -2.688067   -2.594972    1.123561
O      -3.100383   -3.877089    0.629582
H       0.828488    2.042868   -0.379148
H      -0.483110    1.490114   -1.433924
H      -0.850703    2.139614    0.168221
H       0.720211   -0.449397   -0.367743
H       0.353357    0.185451    1.226660
H      -2.142142   -0.044019    0.691785
H      -2.849423   -1.341772   -1.323395
H      -1.109626   -1.568545   -1.810142
H       0.578833   -2.557497   -0.053100
H      -0.079326   -3.257570    1.427214
H      -1.381428   -4.546739   -0.145942
H      -2.396665   -2.675456    2.182345
H      -3.519388   -1.877522    1.057471
H      -3.676449   -4.286901    1.281516
