18

C       0.010375    1.356313   -0.144586
O       0.008825   -0.046993    0.048763
C       0.706313   -0.547383    1.182687
C      -0.008738   -0.180279    2.497526
C       0.658157   -2.087093    0.994126
C       1.309886   -2.540744   -0.231700
N       1.824377   -2.929071   -1.189875
C       2.104313   -0.088457    1.222465
C       3.245000    0.285646    1.272259
H       1.029954    1.757415   -0.188640
H      -0.484320    1.528190   -1.102536
H      -0.548344    1.885294    0.639224
H      -1.054377   -0.497257    2.446415
H       0.474781   -0.667949    3.347978
H       0.025498    0.897181    2.669711
H       1.129032   -2.576547    1.851470
H      -0.394026   -2.388060    0.966293
H       4.257733    0.606321    1.300902
