16

O       0.024649   -0.033113   -0.028879
C       0.034865    1.163253    0.037329
O      -1.100092    1.945732   -0.009169
C      -0.759427    3.344498    0.051244
C       0.742777    3.349337    0.031806
C       1.794412    4.152311   -0.113950
C       3.063318    3.310219   -0.033750
C       2.539999    1.834110   -0.023619
N       1.102743    2.012122    0.178645
H      -1.206269    3.859188   -0.804246
H      -1.173696    3.769694    0.972584
H       1.780270    5.224467   -0.236461
H       3.740045    3.487330   -0.876005
H       3.634953    3.529668    0.876777
H       2.724706    1.322581   -0.974399
H       2.976581    1.231645    0.775315
