19

C       0.357372    1.422196   -0.342528
C      -0.013520   -0.012407    0.036832
O       0.329559   -0.917597   -1.027787
C       1.346060   -1.797152   -0.617068
C       2.671742   -1.524515   -1.336724
O       2.937409   -0.508477   -1.918472
C       1.503981   -1.582667    0.883209
C       2.403764   -2.418552    1.735521
C       0.726755   -0.559002    1.226343
H       1.426851    1.487759   -0.556071
H      -0.193488    1.727059   -1.236597
H       0.106036    2.112445    0.470025
H      -1.102750   -0.074541    0.183660
H       1.061598   -2.838873   -0.850364
H       3.403523   -2.364311   -1.263569
H       3.453184   -2.330071    1.428975
H       2.336547   -2.123469    2.785496
H       2.143637   -3.481923    1.662816
H       0.621855   -0.148249    2.223409
