12

O       0.025796    1.276653    0.007290
C      -0.068835   -0.043838    0.000992
N      -1.198820   -0.623782    0.003875
C      -1.209745   -2.014559   -0.003232
N      -2.235138   -2.760232   -0.001814
N       0.053752   -2.640557   -0.012934
C       1.261527   -2.022821   -0.016298
O       2.341079   -2.529770   -0.024268
O       1.162653   -0.623353   -0.008507
H       0.961331    1.522072    0.003639
H      -3.071206   -2.178286    0.005459
H       0.059924   -3.650639   -0.018071
