21

C       0.483111    1.516302    0.176035
C       0.494593    0.002126   -0.016240
C       0.303249   -0.435218   -1.463245
O       0.044091    0.357927   -2.343455
C       0.503092   -1.911407   -1.745675
C       0.133001   -2.461462   -3.158440
C       1.595281   -2.880797   -3.367007
C       2.501065   -1.688508   -3.255338
C       1.977697   -2.326065   -1.995554
H       1.300275    1.986435   -0.377664
H      -0.449304    1.946944   -0.196772
H       0.589149    1.774855    1.233377
H       1.427123   -0.444121    0.355288
H      -0.301337   -0.475986    0.573318
H       0.065923   -2.510283   -0.941447
H      -0.557231   -3.305164   -3.096709
H      -0.259373   -1.720676   -3.858690
H       1.919998   -3.804587   -3.829382
H       3.550053   -1.881533   -3.455938
H       2.156021   -0.704872   -3.561616
H       2.635707   -2.741827   -1.242136
