19

O       0.159174    1.372882    0.211798
C       0.061331   -0.014833   -0.085536
C      -1.355568   -0.505259   -0.076694
C      -2.033710   -0.988224    1.182025
C      -1.902619   -1.943848    0.031953
C      -2.940389   -1.609750   -1.061250
O      -4.222358   -1.102398   -0.610652
C      -3.798113    0.271560   -0.825041
C      -2.376239   -0.185641   -1.200062
H      -0.274445    1.513322    1.060354
H       0.502810   -0.125952   -1.082579
H       0.665566   -0.622552    0.608180
H      -1.358812   -1.184494    2.010279
H      -3.016865   -0.641641    1.479933
H      -1.361759   -2.879259    0.117606
H      -3.030634   -2.322107   -1.884337
H      -4.353364    0.729056   -1.652925
H      -3.914306    0.890403    0.072359
H      -1.935269    0.185433   -2.123878
