15

O       0.418520    0.789605    0.741952
C      -0.150065   -0.235851   -0.019656
C      -1.606864    0.023359   -0.420784
C      -1.718195   -0.803522   -1.720284
O      -0.400526   -0.779339   -2.309825
C       0.516422   -0.391177   -1.373624
N       1.732600   -0.144137   -1.575714
C      -2.129538   -2.196366   -1.480666
N      -2.469861   -3.282437   -1.283800
H       1.330521    0.878858    0.427600
H      -0.081906   -1.204769    0.504073
H      -2.339460   -0.271669    0.329869
H      -1.730064    1.085051   -0.649667
H      -2.404860   -0.360822   -2.445610
H       2.009415   -0.268630   -2.548947
