19

C       0.152141   -0.509034    1.327590
O      -0.208941   -0.982852    0.049584
C       0.615356   -0.517850   -1.008042
C       1.837767   -1.431420   -1.179828
O       2.791168   -0.720390   -1.962608
C      -0.245565   -0.473644   -2.253151
C      -0.735853    0.818273   -2.789971
N       0.300077    0.058158   -3.508814
H       1.167169   -0.813597    1.622720
H       0.093885    0.588809    1.382423
H      -0.557776   -0.935807    2.040439
H       0.995064    0.493907   -0.789868
H       2.250920   -1.686064   -0.192700
H       1.528587   -2.367081   -1.665582
H       3.401421   -1.351968   -2.352517
H      -0.863173   -1.362444   -2.372370
H      -1.697094    0.870743   -3.293486
H      -0.452152    1.726221   -2.262605
H       1.224150    0.443545   -3.329551
