21

C       0.318942    1.049616    0.399314
O      -0.071182   -0.001059   -0.474751
C      -1.366832   -0.539037   -0.204306
C      -1.929245   -1.024357   -1.561366
O      -1.659167   -0.141452   -2.621120
C      -1.355361   -2.445953   -1.696810
C      -1.541811   -3.012819   -0.282216
C      -1.254501   -1.827896    0.684466
O       0.009294   -1.917501    1.316221
H       1.306965    1.384781    0.074022
H      -0.383391    1.892090    0.338376
H       0.376103    0.700560    1.436557
H      -1.991219    0.238351    0.249455
H      -3.021656   -1.091329   -1.476945
H      -0.766154    0.188775   -2.455867
H      -1.852640   -3.026083   -2.477482
H      -0.292117   -2.378482   -1.958495
H      -2.575282   -3.354560   -0.150790
H      -0.886817   -3.854380   -0.046538
H      -1.988268   -1.802488    1.494798
H       0.652170   -1.603777    0.667305
