19

C       0.010092    1.677554    0.080421
C       1.531728    1.338530    0.044034
C       1.698523    0.612832    1.409036
C       0.511509   -0.299078    1.341823
C      -0.048678    0.124384   -0.045463
N       1.151663    0.265313   -0.919324
C       2.042064   -0.881502   -1.084033
C       2.453416   -1.516246    0.261334
N       1.864318   -0.834310    1.413620
H      -0.386122    2.125931    0.994206
H      -0.336353    2.194582   -0.815954
H       2.297903    2.050281   -0.267754
H       2.020940    1.155100    2.292848
H      -0.156486   -0.517670    2.169550
H      -0.908346   -0.412920   -0.449322
H       1.524451   -1.604563   -1.724267
H       2.916936   -0.534741   -1.645279
H       2.146626   -2.566027    0.318499
H       3.539919   -1.495810    0.397423
