17

C      -0.312616    1.491988    0.079029
C      -0.014828   -0.000279   -0.001668
C       0.829238   -0.485849   -1.258321
N       1.775461   -1.021277   -0.272780
N       3.062608   -1.397239   -0.082240
C       3.200431   -1.179422    1.230765
O       4.343347   -1.501639    1.871719
C       2.056853   -0.610342    1.865962
C       1.165527   -0.526961    0.814222
H       0.596701    2.084666   -0.060611
H      -1.038225    1.786491   -0.686065
H      -0.733230    1.747889    1.056357
H      -0.933084   -0.581306    0.128414
H       0.379062   -1.238085   -1.912111
H       1.232852    0.338551   -1.854299
H       4.942152   -1.866952    1.208256
H       1.953823   -0.345581    2.903653
