17

C       0.083584    1.539927    0.046146
C       0.009138    0.049362    0.006403
C       0.864912   -0.964323   -0.746081
C       0.801826   -1.001766    0.776413
C      -0.384235   -2.003931    0.687022
C      -0.322479   -1.967224   -0.804382
C      -1.204033   -0.928436   -0.067935
C      -2.655368   -0.831451   -0.125479
O      -3.397056   -1.791080   -0.180549
H       1.127152    1.869151    0.097152
H      -0.363099    1.989908   -0.848185
H      -0.435882    1.946378    0.921811
H       1.710040   -0.801060   -1.400812
H       1.589594   -0.872559    1.505999
H      -0.793934   -2.748526    1.355545
H      -0.673959   -2.677297   -1.540220
H      -3.060488    0.205982   -0.116569
