20

C      -0.356855    1.464694   -0.111853
C       0.039111   -0.007090   -0.125147
C       1.122330   -0.571599   -1.102307
C       1.821081   -1.251187    0.089663
N       2.243430   -0.330200    1.105989
C       2.842483    0.969001    0.841386
C       0.822130   -0.627340    1.069032
C       0.186600   -1.154296    2.234198
C      -0.398735   -1.575152    3.197851
H       0.499903    2.135879   -0.023107
H      -0.891202    1.726313   -1.031901
H      -1.027623    1.669369    0.729657
H      -0.867571   -0.608204   -0.247197
H       0.713207   -1.284605   -1.820349
H       1.724616    0.159904   -1.649232
H       2.228818   -2.256745    0.096608
H       2.546451    1.441033   -0.103315
H       2.591156    1.647598    1.661521
H       3.930184    0.843475    0.827756
H      -0.898224   -1.953721    4.054751
