23

C      -0.692684    1.496877    0.118542
C      -0.348838    0.024870    0.272941
O      -1.473843   -0.738887   -0.117597
C      -1.283180   -2.143310   -0.073994
C      -1.417025   -2.724302    1.340063
O      -2.806940   -2.834560    1.589450
C      -3.533491   -2.924796    0.351426
C      -4.597592   -1.832593    0.328409
C      -2.476766   -2.803809   -0.770482
H       0.161924    2.119632    0.399422
H      -0.962104    1.721118   -0.917420
H      -1.539853    1.761477    0.757642
H       0.518399   -0.239633   -0.356037
H      -0.066819   -0.191796    1.315404
H      -0.320239   -2.405176   -0.537053
H      -0.922144   -3.709376    1.386058
H      -0.975129   -2.088478    2.113779
H      -4.019062   -3.909796    0.314384
H      -4.120799   -0.849186    0.309646
H      -5.237709   -1.934183   -0.554708
H      -5.227759   -1.901824    1.219761
H      -2.819001   -2.206380   -1.617396
H      -2.184710   -3.791408   -1.138738
