23

C       0.054206    1.582123   -0.015536
C      -0.019068    0.050032    0.005184
C       0.585044   -0.554313   -1.279298
C       0.715992   -2.073938   -1.213813
C       2.065908   -2.704141   -0.962333
C       1.016570   -2.682661    0.133031
C       1.146867   -1.765694    1.300778
C       1.815578   -2.319944    2.529207
C       0.659642   -0.522759    1.231872
H       1.095432    1.923608   -0.045335
H      -0.457638    1.990247   -0.893512
H      -0.412562    2.013971    0.876150
H      -1.084410   -0.229194    0.041502
H      -0.024742   -0.268527   -2.143957
H       1.571333   -0.099778   -1.436058
H       0.038920   -2.631951   -1.852804
H       2.296077   -3.654123   -1.433408
H       2.913923   -2.034476   -0.856724
H       0.561797   -3.645168    0.358524
H       2.838481   -2.649640    2.307128
H       1.859525   -1.580827    3.333961
H       1.281684   -3.201991    2.906635
H       0.744318    0.132251    2.097825
