14

C       0.053290    1.517600   -0.021198
C       0.055831    0.017688   -0.083959
C       0.054130   -0.776625    1.210385
C       1.207541   -0.492086    2.060321
C       2.158710   -0.244218    2.751726
N       0.032082   -0.690599   -1.146291
O      -0.014180    0.089619   -2.310522
H       0.438618    1.945860   -0.946429
H      -0.969020    1.889743    0.121925
H       0.652756    1.861139    0.825534
H      -0.865916   -0.549310    1.768386
H       0.018958   -1.840551    0.956470
H       3.000079   -0.037177    3.365471
H       0.024575   -0.580065   -3.001335
