21

C       0.038734    1.548436    0.420865
C       1.280883    0.894641   -0.122310
C       2.498670    0.710515    0.760168
O       2.208164    0.307755    2.085390
C       2.089434   -1.090973    2.264874
C       0.704449   -1.643973    1.997071
C      -0.516497   -0.896639    2.462113
C      -0.252709   -1.056982    0.980357
C       0.007205    0.088060    0.024278
H       0.038786    1.772944    1.481652
H      -0.496722    2.266720   -0.190536
H       1.557085    1.150488   -1.143698
H       3.193738   -0.007169    0.294999
H       3.028891    1.667896    0.843829
H       2.829475   -1.612887    1.636744
H       2.357197   -1.285910    3.311311
H       0.676486   -2.727864    2.093807
H      -1.339770   -1.444235    2.907986
H      -0.344274    0.083993    2.891548
H      -0.876477   -1.812684    0.510907
H      -0.485439   -0.089640   -0.927697
