18

N       0.064379   -1.155691   -0.138048
C       0.004966   -0.001276   -0.060209
C      -0.029134    1.426116    0.027248
C      -1.199294    2.085522    0.028719
C      -1.269764    3.585509    0.119230
C      -0.107605    4.170849    0.945278
C       1.245510    3.583201    0.546347
C       1.896072    2.528754    1.409951
C       1.276204    2.146301    0.082674
H      -2.127486    1.526506   -0.038641
H      -1.256338    4.002447   -0.898819
H      -2.230028    3.886611    0.550810
H      -0.088151    5.259366    0.835884
H      -0.303219    3.971230    2.004524
H       1.916060    4.260499    0.027969
H       2.977496    2.506987    1.485597
H       1.373081    2.229712    2.312542
H       1.969723    1.882748   -0.710217
