19

C      -0.038179    1.539329   -0.189298
C       0.229399    0.068553    0.120943
N       0.870671   -0.607821   -0.999171
C       0.584997   -1.925923   -1.281919
O      -0.252591   -2.578850   -0.709109
N       1.358029   -2.400240   -2.368440
C       1.508011   -3.730036   -2.772368
C       2.253140   -3.855772   -4.095486
O       1.105222   -4.676143   -2.146453
H       0.891520    2.081557   -0.397487
H      -0.692720    1.642409   -1.059559
H      -0.518054    2.025587    0.665192
H       0.841169   -0.022033    1.029808
H      -0.699419   -0.472241    0.311060
H       1.762472   -0.243451   -1.297096
H       1.778292   -1.702377   -2.962649
H       3.220940   -3.343872   -4.060149
H       2.411830   -4.912934   -4.304048
H       1.669307   -3.411588   -4.909019
