20

C       0.626812    0.870990   -0.315446
O      -0.293298    0.200909    0.521264
C       0.299658   -0.630547    1.488736
C      -0.839003   -1.169510    2.354953
C       1.064051   -1.801679    0.835940
O       0.666663   -2.372908   -0.153291
N       2.294123   -2.090384    1.423591
C       2.524933   -2.595273    2.765942
C       2.823868   -3.424177    1.549376
H       1.190683    0.172207   -0.946963
H       0.044248    1.534838   -0.958184
H       1.337737    1.475978    0.268822
H       1.010094   -0.055379    2.105187
H      -0.461838   -1.769609    3.188002
H      -1.411957   -0.331833    2.760125
H      -1.501985   -1.787053    1.743791
H       3.332847   -2.125706    3.320419
H       1.662298   -2.879401    3.363040
H       2.152738   -4.244841    1.310357
H       3.854211   -3.559221    1.233644
