16

C      -0.211299    1.441282    0.024873
N      -0.185039   -0.006113   -0.099921
C       0.583064   -0.578052   -0.912865
C       0.586665   -2.078184   -1.070339
C       1.918720   -2.611552   -1.495105
C       2.847007   -1.819416   -2.031659
C       2.598888   -0.388185   -2.269116
O       3.326205    0.340219   -2.883667
O       1.430559    0.137141   -1.750461
H       0.558356    1.961575   -0.552745
H      -1.196283    1.802166   -0.292391
H      -0.107010    1.699901    1.083727
H       0.251895   -2.517482   -0.127568
H      -0.168554   -2.365080   -1.818614
H       2.098804   -3.676167   -1.376831
H       3.810637   -2.177400   -2.371727
