17

C      -0.277450    1.180231    0.569012
O      -0.426400    0.272783   -0.507558
C      -1.416648   -0.680086   -0.295434
C      -1.588010   -1.698452   -1.464609
C      -1.346500   -2.831859   -0.460773
O      -0.063052   -2.655675    0.099499
C      -1.120826   -1.862110    0.659102
C      -1.434751   -2.044607    2.085918
O      -1.997028   -1.214311    2.759593
H       0.514247    1.878512    0.290167
H      -1.206021    1.740288    0.753500
H       0.004398    0.668570    1.499089
H      -2.374260   -0.219728   -0.010493
H      -2.585824   -1.686185   -1.905417
H      -0.826083   -1.627288   -2.242375
H      -1.785262   -3.822375   -0.417300
H      -1.113416   -3.028180    2.492244
