15

C      -0.454446    1.383664    0.149566
C       0.004052   -0.038947   -0.015633
N      -0.044258   -0.578485   -1.186836
C       0.317428   -1.873182   -1.493875
C       0.271725   -2.968173   -0.704615
C      -0.154408   -2.907959    0.707582
O      -0.933278   -3.678046    1.217695
N       0.526711   -1.940594    1.469901
C       0.573989   -0.700140    1.173656
H       0.352017    2.008284    0.551944
H      -0.777397    1.784734   -0.811213
H      -1.284098    1.440766    0.864189
H       0.560989   -1.999463   -2.546616
H       0.437250   -3.952973   -1.130848
H       1.116277   -0.046045    1.863799
