18

C      -0.035100    1.485494    0.008572
C       0.034567   -0.016661   -0.045589
C       0.862069   -0.733560   -1.112816
C       0.677287   -2.110583   -0.447883
O       1.259414   -1.877417    0.847852
C       0.367990   -0.851797    1.267044
C      -1.041959   -1.440526    1.127112
C      -0.852269   -2.117641   -0.174290
N      -1.331059   -0.697498   -0.139792
H       0.960479    1.914695    0.161534
H      -0.445697    1.887617   -0.923139
H      -0.681486    1.818013    0.827233
H       0.397011   -0.651291   -2.099074
H       1.912265   -0.435959   -1.152864
H       1.110834   -2.994892   -0.909268
H       0.709559   -0.368822    2.179570
H      -1.791870   -1.666881    1.876124
H      -1.535154   -2.856716   -0.571635
