22

C      -0.166326    1.548409    0.005625
C       0.063577    0.039215   -0.014655
C       0.935766   -0.457743   -1.189245
C       1.562292   -1.799315   -0.726606
C       1.220100   -1.949256    0.798850
C       2.391127   -2.507624    1.626873
C       0.801249   -0.513206    1.213037
C       0.063013   -2.844559    0.953637
N      -0.845148   -3.550064    1.077300
H       0.784454    2.089814    0.078738
H      -0.670452    1.884071   -0.906633
H      -0.787855    1.846968    0.856193
H      -0.911389   -0.462865   -0.070465
H       0.361305   -0.562572   -2.113357
H       1.725518    0.275603   -1.389682
H       1.187538   -2.653652   -1.293913
H       2.649251   -1.791742   -0.846226
H       3.257111   -1.846336    1.526627
H       2.129168   -2.576552    2.686472
H       2.677129   -3.505718    1.283270
H       1.713303    0.070406    1.395308
H       0.206081   -0.496890    2.129992
