16

N       0.182472    1.258688   -0.435756
C       0.081743    0.074159   -0.009872
C      -1.266640   -0.454740    0.443531
O      -1.183260   -1.486668    1.412649
C      -0.298007   -2.502229    0.991193
C       1.104652   -1.931944    0.845091
O       1.119032   -0.811539   -0.049790
C      -0.360971   -3.624237    2.015912
O       0.500947   -4.452591    2.144686
H       1.132953    1.439242   -0.766195
H      -1.840657    0.363763    0.876390
H      -1.802253   -0.820967   -0.448663
H      -0.626940   -2.919753    0.020085
H       1.475635   -1.612633    1.826654
H       1.790706   -2.672747    0.432676
H      -1.284472   -3.611256    2.633258
