21

C      -0.112069    1.477190   -0.565972
C      -0.014815    0.197598    0.272838
C      -1.341108   -0.525074    0.350849
N      -1.712098   -1.385023   -0.788290
C      -1.516488   -1.991417    0.541659
C      -0.385067   -2.986298    0.670164
C      -0.744905   -4.310440   -0.037205
C       0.314053   -5.310901    0.064326
N       1.162228   -6.090353    0.157918
H       0.852675    1.990136   -0.618640
H      -0.429176    1.243032   -1.586900
H      -0.839203    2.177765   -0.140124
H       0.740228   -0.463707   -0.162161
H       0.319346    0.439679    1.289995
H      -2.141211    0.085165    0.772549
H      -2.700536   -1.296906   -1.005249
H      -2.417851   -2.286353    1.080716
H       0.529199   -2.588827    0.224488
H      -0.175315   -3.177575    1.728279
H      -1.663391   -4.734112    0.386402
H      -0.944546   -4.106615   -1.094763
