21

C      -0.158584    1.580574   -0.037902
C       0.069776    0.072221   -0.029390
C       0.763217   -0.596415   -1.219657
C       2.270638   -0.468097   -1.076229
O       2.811472    0.574333   -0.287905
C       2.373359    0.331956    1.057252
C       1.157688   -0.577468    0.902863
C       1.571464   -1.509303   -0.278394
C       1.803900   -2.989482   -0.250416
H       0.762136    2.122186   -0.267090
H      -0.900240    1.846229   -0.799695
H      -0.541224    1.932632    0.927263
H      -0.880064   -0.441445    0.156345
H       0.304229   -0.842257   -2.172724
H       2.893091   -0.728662   -1.924815
H       3.172157   -0.157254    1.636709
H       2.146771    1.296465    1.522695
H       0.806592   -1.029913    1.830854
H       0.916321   -3.531616    0.096352
H       2.051524   -3.366630   -1.248263
H       2.634334   -3.251511    0.416286
