13

N       0.022208    1.270359    0.143016
C      -0.046074   -0.075185    0.035966
N      -1.140340   -0.800087   -0.047523
C      -0.659626   -2.079372   -0.074735
O      -1.478039   -3.128915   -0.157145
C       0.714425   -2.104516   -0.011738
O       1.098660   -0.754023    0.060661
C       1.690022   -3.151521   -0.015228
O       2.897037   -3.007199    0.039426
H       0.907458    1.706643   -0.056704
H      -0.808206    1.781494   -0.105673
H      -2.380796   -2.785716   -0.180534
H       1.218553   -4.156753   -0.076149
