14

C       0.015542    1.512817    0.118685
C       0.038299    0.024873    0.015868
C      -0.008940   -0.747362   -1.134186
N       0.040481   -2.060759   -0.684327
C       0.112663   -2.018639    0.668792
N       0.113440   -0.783810    1.122330
C      -0.088988   -0.408331   -2.496037
C      -0.157657   -0.118618   -3.664550
H       0.918045    1.883260    0.616418
H      -0.047317    1.969758   -0.871657
H      -0.840606    1.849685    0.712779
H       0.024391   -2.878111   -1.271176
H       0.162278   -2.913409    1.271515
H      -0.218177    0.144645   -4.691280
