19

C      -0.130526    1.555820    0.023475
C       0.027545    0.042336   -0.039705
C       1.199778   -0.606787   -0.810537
C       2.139685   -0.248173    0.422210
C       0.815850   -0.657090    1.117540
O       0.187263   -0.922353    2.385390
C      -0.416025   -2.124783    1.776778
C       0.742401   -2.100810    0.723815
O       0.846349   -2.023820   -0.701454
H       0.795681    2.085808    0.257997
H      -0.504354    1.944116   -0.929878
H      -0.860657    1.818234    0.796000
H      -0.929680   -0.418636   -0.297377
H       1.475844   -0.365647   -1.834563
H       3.013659   -0.875572    0.605378
H       2.412038    0.805898    0.417083
H      -0.422401   -2.960844    2.479221
H      -1.424019   -1.921376    1.404026
H       1.561835   -2.712263    1.115893
