18

C       0.003002    1.577239   -0.346738
C       0.031642    0.078464   -0.102784
O       0.901032   -0.537062   -1.043219
C       1.465324   -1.686285   -0.449860
O       1.074307   -1.711591    0.914457
C       0.601721   -0.423474    1.247348
C       1.745581    0.453326    1.781306
N       1.394327    1.298608    2.795428
O       2.859415    0.423401    1.298921
H       1.008888    1.996704   -0.272526
H      -0.383131    1.780013   -1.348904
H      -0.648313    2.075922    0.377697
H      -0.984453   -0.336703   -0.202945
H       1.085036   -2.605626   -0.917883
H       2.555514   -1.623537   -0.543578
H      -0.187242   -0.539384    1.998412
H       0.532546    1.191971    3.301615
H       2.120772    1.860877    3.210143
