21

C       0.097200    1.469225   -0.111496
C      -0.097055   -0.046003    0.046107
C      -1.589092   -0.409496    0.033713
O       0.542429   -0.706388   -1.070122
C       1.561419   -1.585618   -0.620376
C       1.559844   -1.468120    0.882626
C       2.498496   -2.244027    1.744035
O       2.264913   -1.929533    3.104285
C       0.624484   -0.600436    1.250278
H       1.161561    1.718068   -0.123648
H      -0.350422    1.809810   -1.050205
H      -0.376750    2.012095    0.712989
H      -2.047649   -0.082199   -0.904444
H      -1.718992   -1.491014    0.125238
H      -2.116511    0.074766    0.862224
H       1.352127   -2.614382   -0.958782
H       2.531620   -1.299426   -1.060265
H       2.360711   -3.323094    1.550298
H       3.537679   -2.011728    1.449113
H       2.881773   -2.437472    3.638601
H       0.391226   -0.312573    2.266261
