21

C       0.328822    1.655051    0.080148
C       0.033590    0.164280    0.039336
C       0.805719   -0.731537   -0.985833
C       1.228938   -1.695461    0.162432
C       0.896866   -3.157058    0.035226
O       1.741336   -3.696492   -0.974690
C       2.555464   -1.290539    0.826065
O       1.892234   -0.304745    1.655658
C       0.589293   -0.714373    1.189423
H       1.390929    1.827410    0.274573
H       0.067571    2.131917   -0.870612
H      -0.240768    2.152601    0.872864
H      -1.045449   -0.007702   -0.051141
H       0.178340   -1.194895   -1.750657
H       1.644812   -0.239485   -1.485527
H       1.057398   -3.662250    1.001998
H      -0.167117   -3.278907   -0.227152
H       1.537537   -4.631336   -1.072553
H       3.014551   -2.079027    1.437694
H       3.320537   -0.846588    0.178645
H      -0.074120   -0.991971    2.015439
