17

C       0.313833    1.444756   -0.065235
O      -0.281060    0.218002    0.337500
C       0.476537   -0.477994    1.275759
C      -0.067620   -1.869853    1.653717
C      -1.212141   -2.432990    0.833318
O      -1.365221   -3.817981    1.071629
O       1.211019   -2.479471    1.227076
C       1.696584   -1.280278    0.765149
O       2.709126   -1.078293    0.176874
H       1.289588    1.280673   -0.536948
H      -0.367945    1.902121   -0.784216
H       0.441461    2.120913    0.793053
H       0.735865    0.148745    2.142559
H      -0.213698   -2.054327    2.719966
H      -2.146259   -1.949034    1.134746
H      -1.048482   -2.208425   -0.229181
H      -0.538106   -4.241597    0.814498
