16

O       0.078860   -0.030390    0.017963
C      -0.011866    1.173944    0.022552
C      -1.334467    1.941495    0.040191
N      -1.401421    3.044987   -0.943831
C      -0.149945    3.689633   -1.270111
C       0.890002    4.115882   -0.280773
O       0.956447    3.251225    0.855114
C       1.191755    2.102918   -0.007482
C       1.202600    2.997319   -1.266578
H      -2.150655    1.241554   -0.147229
H      -1.462435    2.351148    1.049222
H      -1.781883    2.671431   -1.807232
H      -0.265367    4.403019   -2.082506
H       1.268501    5.124758   -0.158546
H       2.123007    1.589498    0.239572
H       1.891454    2.921098   -2.097273
