21

O      -0.313369    1.431711   -0.299088
C      -0.151679    0.047879   -0.172968
C      -0.346579   -0.624799    1.160738
C      -1.400723   -0.751272    0.084724
C      -2.754626   -0.037022    0.191160
C      -3.776359   -1.027799   -0.417616
C      -2.949465   -1.866373   -1.401109
C      -1.626179   -2.087118   -0.651245
O      -0.547423   -2.533876   -1.452597
H       0.435187    1.859247    0.129193
H       0.595066   -0.389785   -0.834396
H       0.270802   -1.490386    1.383437
H      -0.579410    0.009948    2.010612
H      -3.008134    0.231291    1.220661
H      -2.727067    0.896073   -0.379642
H      -4.185740   -1.678475    0.364316
H      -4.623243   -0.522825   -0.889481
H      -3.425438   -2.802973   -1.702631
H      -2.747038   -1.286734   -2.313549
H      -1.758952   -2.884597    0.090919
H      -0.460768   -1.918618   -2.189356
