25

C      -0.221695    1.539287    0.022126
C      -0.029958    0.015004    0.019982
C       0.412126   -0.531146   -1.359821
C       1.691943    0.060050   -1.978824
C       3.017916   -0.228635   -1.255329
C       3.123808    0.377799    0.154487
C       2.349182   -0.403506    1.199965
C       1.490848    0.275322    2.239334
C       0.844508   -0.545694    1.147187
H       0.713484    2.092583   -0.099748
H      -0.883458    1.836626   -0.798877
H      -0.681367    1.871750    0.957600
H      -1.030754   -0.403693    0.194166
H       0.525130   -1.620910   -1.279937
H      -0.409226   -0.363575   -2.069512
H       1.771545   -0.327438   -3.002548
H       1.578293    1.146947   -2.086472
H       3.175332   -1.314375   -1.193804
H       3.834457    0.162467   -1.875483
H       4.177471    0.416250    0.458483
H       2.788182    1.421197    0.123612
H       2.871808   -1.297590    1.533627
H       1.481896   -0.109365    3.253855
H       1.408324    1.355612    2.179912
H       0.496520   -1.523076    1.473685
