17

C      -0.102331   -1.275622   -0.012418
C      -0.078021   -0.073677    0.022783
C      -0.049920    1.373772    0.061058
C      -0.119231    2.014153    1.486229
N       1.340414    2.233152    1.436761
C       1.368133    2.045494   -0.022432
C       2.544509    1.212571   -0.543115
C       3.805702    1.935366   -0.401518
N       4.786530    2.534986   -0.282378
H      -0.131525   -2.336971   -0.039457
H      -0.768610    1.781489   -0.653197
H      -0.726611    2.929145    1.484472
H      -0.452671    1.360965    2.296778
H       1.677226    3.126062    1.777591
H       1.303918    2.979643   -0.598392
H       2.597623    0.273670    0.015166
H       2.391777    0.963648   -1.599663
