14

C      -0.038772    1.515422    0.091601
O       1.206029    1.945645   -0.480763
C       2.135098    0.861005   -0.631128
C       1.312183   -0.369143   -0.415710
C       1.318143   -1.722493   -0.461080
O       0.092505   -2.193811   -0.081896
C      -0.696281   -1.116075    0.208640
C       0.011161    0.022514    0.016830
H      -0.124235    1.879450    1.126939
H      -0.854133    1.963958   -0.488595
H       2.581014    0.929849   -1.630650
H       2.947537    0.954731    0.105692
H       2.043609   -2.474295   -0.722260
H      -1.700183   -1.347272    0.522408
