18

O      -0.092829    1.354306    0.004042
C      -0.005569   -0.044329    0.003427
C       0.702056   -0.733650    1.202047
C       0.446743   -2.167657    0.760440
C      -0.875855   -2.167710    0.010854
C      -1.386770   -0.732970    0.015071
C       0.433964   -2.167753   -0.760829
C       0.681808   -0.733810   -1.206849
H       0.801834    1.709965   -0.002730
H       1.768012   -0.481099    1.256643
H       0.230202   -0.475356    2.155384
H       0.782904   -3.026458    1.326624
H      -1.535323   -3.025393    0.016462
H      -1.962619   -0.475594    0.909667
H      -1.977572   -0.475669   -0.869744
H       0.760563   -3.026641   -1.332452
H       0.193963   -0.475624   -2.152132
H       1.746680   -0.481245   -1.279424
