19

C      -0.422846    1.578548   -0.009567
C      -0.069144    0.098815   -0.026513
C      -1.336893   -0.752877   -0.053630
C       0.996463   -0.438167   -1.035310
C       1.718293   -1.015081    0.177855
C       2.151299    0.046206    1.119281
C       2.622003    1.334401    0.675523
N       3.057535    2.352264    0.338615
N       0.740172   -0.424398    1.165471
H       0.448881    2.230521   -0.049915
H      -1.056114    1.813206   -0.872065
H      -0.991000    1.815599    0.896247
H      -1.904063   -0.558641   -0.969787
H      -1.096894   -1.819446   -0.014107
H      -1.971909   -0.518226    0.805802
H       0.604322   -1.190004   -1.721592
H       1.563108    0.303489   -1.604064
H       2.095795   -2.027617    0.279169
H       2.677969   -0.294340    2.007179
