17

C      -0.252608    1.481370    0.160710
C       0.035511   -0.020498    0.057106
N       0.724580   -0.513257    1.238687
C       0.084122   -1.140175    2.124454
N       0.574762   -1.655501    3.307672
C      -0.425382   -2.449193    3.919998
C      -1.529577   -2.271529    3.193409
O      -2.797082   -2.662905    3.375508
O      -1.279924   -1.462062    2.105525
H       0.670940    2.035499    0.352086
H      -0.697272    1.856250   -0.767450
H      -0.946728    1.688606    0.981533
H      -0.902152   -0.560860   -0.136789
H       0.689303   -0.196815   -0.805962
H       1.561084   -1.834825    3.388401
H      -0.272263   -2.978365    4.842134
H      -3.244304   -2.649745    2.520447
