16

O      -0.089697    0.060894    0.237695
C       0.036885    1.228840   -0.034975
C       1.336431    1.948655   -0.004767
C       2.521641    1.376226    0.686206
C       3.328876    2.378306    1.033055
C       2.768428    3.653698    0.456822
C       2.928648    3.607837   -1.101595
C       1.544959    2.985743   -1.107614
N       1.254370    3.413061    0.288748
H      -0.826074    1.859026   -0.343615
H       2.644383    0.315678    0.851063
H       4.298011    2.306895    1.509665
H       3.008750    4.585781    0.965174
H       2.882344    4.609374   -1.534729
H       3.773562    3.055892   -1.520771
H       0.812649    3.084705   -1.904441
