17

C      -0.317917    1.582807    0.060654
C       0.190722    0.154246    0.037734
C       1.031429   -0.234166   -1.198594
O       2.077171   -1.047638   -0.681667
C       1.882161   -1.162909    0.722729
C       3.210302   -1.166107    1.445098
O       1.109451   -0.051671    1.106034
H       0.516940    2.284535   -0.026262
H      -1.009016    1.755123   -0.770503
H      -0.848520    1.788267    0.994176
H      -0.652548   -0.548327    0.143480
H       0.443873   -0.786505   -1.942108
H       1.467204    0.649485   -1.682886
H       1.317658   -2.093473    0.927345
H       3.741937   -0.233811    1.240172
H       3.051515   -1.262522    2.522321
H       3.816706   -2.007770    1.101534
