19

C       1.642646    0.985392   -2.259701
C       1.520399   -0.505318   -2.062239
N       2.376661   -1.407138   -2.316672
O       0.303052   -0.790284   -1.542847
C      -0.029944   -2.148772   -1.273708
C       0.650917   -2.721302   -0.054802
C      -1.470689   -2.451325   -1.566310
C      -0.374128   -3.000482   -2.457902
H       0.843997    1.346198   -2.914952
H       1.530151    1.501687   -1.301369
H       2.609011    1.245271   -2.694585
H       3.220718   -0.990030   -2.702958
H       0.456426   -2.094410    0.822113
H       0.265296   -3.723616    0.152965
H       1.729063   -2.789490   -0.212682
H      -1.994986   -3.127090   -0.899533
H      -2.072364   -1.639339   -1.958205
H      -0.255399   -2.558018   -3.439267
H      -0.134307   -4.056824   -2.408965
