18

C      -0.278042    1.402738    0.013170
O      -0.028979    0.017245    0.003037
C      -1.204281   -0.733953    0.009840
C      -0.896657   -2.215162   -0.001249
N       0.275791   -2.681048   -0.015445
O      -2.092938   -2.876036    0.007010
C      -2.049951   -4.302085   -0.001517
C      -3.408852   -4.818795    0.008894
C      -4.517368   -5.278714    0.017077
H       0.692046    1.904341    0.006927
H      -0.851343    1.723237   -0.871597
H      -0.834672    1.713185    0.912053
H      -1.822992   -0.521155    0.899427
H      -1.839425   -0.511386   -0.865676
H       0.309969   -3.698565   -0.021313
H      -1.516219   -4.655745   -0.895149
H      -1.498845   -4.665826    0.877403
H      -5.500428   -5.680947    0.024141
