20

C      -0.181070    1.389603   -0.088080
C       0.035825   -0.102197   -0.156297
C       0.918614   -0.686192   -1.206330
N       1.380573   -0.537052    0.256242
C       1.420811   -2.076523    0.313949
C       0.585344   -3.070063    1.133585
C       0.222882   -4.129516    0.030231
C       0.155129   -3.299141   -1.258034
C       0.833473   -2.175522   -1.054043
H       0.714335    1.926119   -0.413018
H      -1.020483    1.691098   -0.723518
H      -0.401775    1.696903    0.939475
H      -0.816988   -0.704861    0.153016
H       1.355888   -0.098296   -2.005423
H       2.489064   -2.320518    0.350810
H       1.106507   -3.504435    1.990883
H      -0.335657   -2.601339    1.497338
H       0.987857   -4.917257   -0.021867
H      -0.726401   -4.634836    0.237926
H      -0.427093   -3.593319   -2.123196
