22

C      -0.178624    1.374582    0.023090
O      -0.072191   -0.030478   -0.002127
C       0.659563   -0.509181   -1.102102
C       0.625336   -2.045813   -1.058307
C      -0.773404   -2.492475   -1.086451
N      -1.867410   -2.860346   -1.145303
C       1.438597   -2.729752   -2.195757
C       2.910193   -2.290332   -2.186794
C       1.338623   -4.258350   -2.096851
H       0.809004    1.857329    0.091930
H      -0.689673    1.759145   -0.872775
H      -0.764394    1.638807    0.906001
H       0.228216   -0.151637   -2.052073
H       1.700798   -0.158319   -1.054132
H       1.046161   -2.353869   -0.091827
H       0.988718   -2.418707   -3.147776
H       3.376066   -2.493288   -1.215123
H       3.470158   -2.849031   -2.942808
H       3.037251   -1.227312   -2.407192
H       0.300933   -4.599645   -2.125314
H       1.873884   -4.728348   -2.927253
H       1.788818   -4.619331   -1.164492
