19

C      -0.104256    1.567737    0.026639
C       0.055191    0.065230    0.078375
C       1.358340   -0.685002   -0.201458
C       2.662037    0.073865   -0.064106
O       3.477861    0.268954   -0.936067
C       2.748164    0.504108    1.361714
C       1.686442    0.045303    2.038203
C       0.740274   -0.737046    1.178477
C       0.075984   -1.963515    1.761892
H       0.732462    2.095122    0.488704
H      -0.179548    1.904859   -1.012435
H      -1.021511    1.872793    0.542224
H      -0.805261   -0.460702   -0.333610
H       1.329899   -1.518741   -0.892776
H       3.553406    1.121762    1.737885
H       1.481705    0.224546    3.089167
H      -0.565710   -1.698686    2.610522
H      -0.549730   -2.463220    1.016456
H       0.817703   -2.687046    2.117254
