20

C       0.448317    1.887117   -0.418516
C       0.205514    0.392567   -0.421768
C       0.530651   -0.554763   -1.506201
C       1.860020   -0.231423   -2.191654
C       2.511030   -0.409872   -0.794874
C       3.416246    0.662389   -0.180178
C       3.552993    0.465034    1.314985
O       3.275989    1.299182    2.138156
N       1.183304   -0.683660   -0.127956
H       1.141326    2.217476   -1.195247
H      -0.503005    2.399967   -0.594495
H       0.834962    2.219290    0.550079
H      -0.713558    0.131606    0.101223
H      -0.175052   -1.297068   -1.866514
H       2.180415   -0.982182   -2.915527
H       1.931564    0.755003   -2.660105
H       3.045787   -1.364519   -0.758961
H       4.415068    0.560183   -0.628454
H       3.066314    1.678339   -0.361073
H       3.935579   -0.535937    1.619418
