15

N       0.144679    1.404250   -0.107855
C       0.013267   -0.000195   -0.043210
C      -1.090701   -0.832807   -0.006135
C      -0.596898   -2.169578   -0.018547
O      -1.310308   -3.339479    0.008554
C       0.778288   -2.129669   -0.049527
N       1.781364   -3.123305   -0.056396
N       1.127583   -0.784685   -0.067584
H       0.366452    1.811975    0.796607
H      -0.719043    1.826407   -0.426421
H      -2.122939   -0.517763    0.046744
H      -2.243881   -3.120878    0.070162
H       1.754145   -3.678242   -0.906849
H       1.663844   -3.771386    0.716229
H       2.070405   -0.451936   -0.174157
