16

C       0.006944    1.484341    0.009696
C       0.013172    0.032653    0.001873
C       0.019276   -1.177697   -0.004666
C       0.026516   -2.537935   -0.012011
C       0.033786   -3.748767   -0.018551
C       0.022036   -5.201880   -0.026241
C      -1.397620   -5.784176   -0.015499
O      -1.259544   -7.194053   -0.024460
H       1.027040    1.885020    0.002031
H      -0.513459    1.884397   -0.867992
H      -0.496448    1.874935    0.901454
H       0.545302   -5.583949   -0.911995
H       0.562484   -5.593400    0.844948
H      -1.930254   -5.430324    0.879487
H      -1.947627   -5.420737   -0.896022
H      -2.138269   -7.584164   -0.017612
