16

O      -0.392445    1.234756    1.498688
C       0.041078    1.052950    0.391256
C       1.357325    1.621443   -0.104213
N       2.070110    0.778629   -1.089487
C       2.322651    1.927259   -1.996395
C       1.384475    1.899922   -3.227224
C       0.295945    2.536289   -2.334926
O      -0.862475    2.787899   -2.481825
C       1.291396    2.764495   -1.168412
H      -0.499318    0.446408   -0.368322
H       1.950586    1.936818    0.762709
H       2.889836    0.300306   -0.737958
H       3.361403    2.228842   -2.135241
H       1.686169    2.599345   -4.016601
H       1.160651    0.926254   -3.667172
H       1.415360    3.788882   -0.821187
