18

N       0.036779    1.220005   -0.370790
C      -0.026546   -0.023008    0.201743
O       0.925729   -0.506160    0.790712
C      -1.320303   -0.760302    0.039534
C      -1.693991   -1.659372    1.205091
C      -1.255001   -2.291532   -0.084492
C      -2.351132   -2.646626   -1.027893
C      -3.035757   -1.572787   -1.426806
C      -2.455288   -0.285606   -0.874955
H       0.857066    1.766198   -0.160930
H      -0.792661    1.712360   -0.652886
H      -0.982181   -1.662588    2.022367
H      -2.742372   -1.728055    1.476452
H      -0.291845   -2.786792   -0.112051
H      -2.567070   -3.670519   -1.310596
H      -3.911987   -1.583742   -2.064699
H      -3.206475    0.311206   -0.340774
H      -2.078688    0.342311   -1.694797
