20

C      -0.046133    1.484378    0.037827
C       1.510936    1.579082   -0.057228
C       1.555756    0.076158   -0.365441
C       2.467406   -1.032601    0.122227
C       1.687757   -2.262448   -0.432879
N       0.851918   -1.779146   -1.569703
C      -0.209816   -0.787679   -1.267891
C       1.131189   -0.373735   -1.788631
C       0.041530   -0.077194    0.050847
H      -0.483505    1.928310    0.934183
H      -0.570980    1.883175   -0.833929
H       1.936670    2.254172   -0.805560
H       1.960160    1.815131    0.912199
H       3.473982   -0.967077   -0.309066
H       2.567036   -1.059008    1.212201
H       2.355323   -3.040153   -0.813460
H       1.049651   -2.718871    0.329976
H      -1.151348   -0.909486   -1.795237
H       1.461828    0.001987   -2.750946
H      -0.255379   -0.556616    0.987968
