15

C       0.480586    0.313702   -1.044084
O       0.263847   -0.745116   -0.126280
C       0.450686   -0.359942    1.217923
C      -0.072827   -1.398602    2.097419
C      -0.464273   -2.243393    2.855901
C       1.951253   -0.133381    1.558862
O       2.316257    0.819374    2.206021
C       2.864480   -1.132396    1.043617
C       3.637918   -1.950098    0.617857
H       1.517468    0.677093   -1.023146
H       0.267967   -0.086692   -2.036867
H      -0.192152    1.160226   -0.843888
H      -0.046532    0.599120    1.432822
H      -0.824658   -2.991472    3.518552
H       4.320870   -2.674682    0.245141
