12

N      -0.284666    1.305827   -0.016843
C      -0.075371    0.074454   -0.178872
O       1.158411   -0.380540   -0.638630
C       1.493662   -1.686409   -0.862532
N       0.763801   -2.659834   -1.185664
C      -0.619636   -2.476297   -1.403879
O      -1.150654   -2.744786   -2.443077
N      -1.361813   -2.047885   -0.275695
C      -1.123430   -0.907259    0.227119
H       0.510173    1.869537   -0.323863
H       2.570824   -1.796446   -0.763633
H      -1.752471   -0.543391    1.039116
