21

C       0.270703    1.122731   -0.338116
O       0.142535   -0.173408    0.221379
C      -1.163521   -0.734147    0.106960
C      -1.290887   -1.199762   -1.345630
O      -1.931124   -0.622643   -2.185242
C      -1.273353   -1.859789    1.143162
C      -1.074348   -1.322018    2.565621
C      -2.612464   -2.595786    1.019112
O      -2.805950   -3.200011   -0.253000
H       1.311044    1.423843   -0.195727
H       0.034532    1.140129   -1.409779
H      -0.385869    1.842474    0.172074
H      -1.932813    0.032805    0.287779
H      -0.626348   -2.056002   -1.598387
H      -0.467382   -2.577764    0.927347
H      -0.134473   -0.772629    2.637209
H      -1.888242   -0.642707    2.845412
H      -1.055869   -2.138632    3.294142
H      -2.701031   -3.335761    1.828004
H      -3.441525   -1.888576    1.137989
H      -2.192034   -3.937543   -0.329943
