19

C      -0.017383    1.539684    0.064793
C      -0.061408    0.033346   -0.009083
C       0.880151   -0.567234   -1.072280
C       0.882904   -2.075924   -0.967809
C       0.142205   -2.653352   -0.022759
C      -0.633945   -1.716453    0.869303
O       0.237212   -0.610326    1.280832
C      -1.437855   -0.707296    0.010974
O      -2.451495   -0.027048    0.703632
H       0.964455    1.866729    0.422596
H      -0.183939    1.976312   -0.925394
H      -0.782684    1.927848    0.740298
H       0.558983   -0.248150   -2.073446
H       1.895135   -0.168568   -0.935391
H       1.499567   -2.646493   -1.655941
H       0.076180   -3.727313    0.111873
H      -1.134074   -2.187357    1.718562
H      -1.863695   -1.053507   -0.932475
H      -2.086672    0.221696    1.562229
