20

C      -0.024879    0.741884    0.986163
O      -1.297215    0.298050    0.570573
C      -1.288712   -0.419272   -0.651334
C      -0.927625   -1.904913   -0.469100
C      -1.951922   -2.594608    0.434665
O      -1.423620   -3.852172    0.869666
C      -0.743543   -2.561564   -1.849865
N      -0.801166   -3.918764   -1.853628
O      -0.547407   -1.903109   -2.857111
H      -0.170933    1.335844    1.891922
H       0.659346   -0.087137    1.222106
H       0.451616    1.371805    0.219802
H      -2.301143   -0.334193   -1.061403
H      -0.603341    0.030155   -1.377774
H       0.043343   -1.974398    0.040975
H      -2.144285   -1.940982    1.293807
H      -2.897645   -2.735742   -0.110082
H      -2.082164   -4.279353    1.425488
H      -0.927492   -4.428846   -0.991661
H      -0.643421   -4.396805   -2.725294
