8

O      -0.146847    1.304624    0.010615
N       1.239518    1.786874    0.000078
N       2.021946    0.812201   -0.013245
N       1.279336   -0.311943   -0.012054
N       1.437476   -1.663857   -0.020619
N       0.218506   -2.101895   -0.011817
N      -0.745877   -1.111081    0.002914
C      -0.033134   -0.015682    0.002206
