16

O       0.017052   -0.054032    0.225346
C      -0.017293    1.149367    0.047551
C      -1.329044    1.921619   -0.094491
C      -1.230987    3.154113   -0.980356
N      -1.133312    4.456092   -0.296025
C       0.049572    3.904320   -0.977391
C       1.150487    3.367462   -0.073489
N       1.116740    1.909090   -0.036296
H      -2.073352    1.212048   -0.459681
H      -1.640048    2.231256    0.910401
H      -1.787032    3.116428   -1.913087
H      -1.555761    5.184797   -0.865428
H       0.373221    4.372289   -1.902527
H       2.133777    3.669520   -0.445083
H       1.027849    3.802042    0.927569
H       1.970601    1.406785    0.154848
