17

C      -0.196697    1.564867   -0.022097
C       0.032614    0.075224    0.002667
C      -0.791144   -0.828927    0.946727
O      -1.338886   -2.033948    0.525305
C       0.685374   -0.722213    1.117909
O       1.383155   -1.835390    0.590495
C       1.336214   -1.812804   -0.835731
C       0.517028   -0.587386   -1.247894
O       0.368869   -0.191874   -2.375795
H       0.733902    2.109535   -0.211415
H      -0.899623    1.817870   -0.821257
H      -0.610294    1.919664    0.926283
H      -1.433434   -0.269105    1.623795
H      -0.706509   -2.723898    0.766207
H       1.166507   -0.285284    1.986457
H       2.351996   -1.734694   -1.241014
H       0.874242   -2.728043   -1.222961
