16

O      -0.046064   -0.040600   -0.013048
C      -0.052897    1.160806    0.003026
C      -1.191046    2.125935    0.031247
C      -0.703562    3.337821    0.836929
C      -0.672211    3.372284   -0.660259
N       0.785621    3.241622   -0.993932
C       1.377533    4.203168    0.027633
C       0.824845    3.224369    1.093701
C       1.112547    2.137919    0.018981
H      -2.227138    1.820470   -0.004745
H      -1.371174    3.917201    1.458887
H      -1.283049    3.994742   -1.298589
H       2.467055    4.209798   -0.054798
H       0.981931    5.222046   -0.014016
H       1.175871    3.160236    2.123948
H       2.117805    1.740196   -0.083726
