17

O       0.153048    1.411917   -0.113182
C       0.030655    0.026355   -0.035125
C       0.127914   -0.644895    1.355687
O      -0.853779    0.129113    2.090285
C      -2.030764   -0.140957    1.286522
O      -2.717958   -1.226116    1.838542
C      -1.805469   -2.337931    1.734642
C      -0.717801   -1.827859    0.789469
C      -1.367764   -0.653170   -0.014659
H      -0.192366    1.754130    0.722982
H       0.688327   -0.421676   -0.783488
H       1.039663   -0.748029    1.941771
H      -2.688276    0.726126    1.268865
H      -1.416231   -2.593088    2.727094
H      -2.345626   -3.202228    1.333998
H      -0.162918   -2.575354    0.225630
H      -2.007136   -0.787553   -0.884305
