17

C      -0.016771    1.382263    0.045050
O      -0.054734   -0.023411   -0.034311
C       0.692004   -0.532228   -1.113364
C       0.549823   -2.056453   -1.101624
C       1.286504   -2.705889   -2.224147
C       2.397909   -3.487784   -2.250945
O       2.678817   -3.818608   -3.508668
N       1.672568   -3.196250   -4.313963
N       0.899773   -2.572495   -3.546071
H       1.009379    1.755665    0.189990
H      -0.428026    1.853336   -0.861349
H      -0.624336    1.677247    0.903783
H       0.327549   -0.129009   -2.072137
H       1.755023   -0.249138   -1.023791
H       0.917319   -2.441640   -0.145862
H      -0.515184   -2.303735   -1.162012
H       3.050436   -3.870136   -1.483052
