20

N       0.091019    0.056381    1.575698
C       0.223727    0.589556    0.559192
C       0.381275    1.259993   -0.751529
O       1.404229    2.210871   -0.806490
C       1.133733    3.458937   -0.143398
C       1.558732    3.435629    1.354920
C       2.679519    4.491389    1.498917
C       3.268406    4.609927    0.084131
C       2.019064    4.530954   -0.805323
H       0.620360    0.490572   -1.493150
H      -0.594915    1.692707   -1.023142
H       0.066133    3.683684   -0.268744
H       0.718112    3.619099    2.028590
H       1.942031    2.438869    1.585158
H       2.255931    5.456314    1.802787
H       3.419108    4.213358    2.254376
H       3.848075    5.524263   -0.068466
H       3.928037    3.759414   -0.124283
H       2.218330    4.281845   -1.849914
H       1.489726    5.490929   -0.783763
