22

C       0.061527    1.363697   -0.196074
O       0.005390    0.045387    0.295321
C      -1.260747   -0.547189    0.148646
C      -1.521154   -1.129204   -1.275960
C      -1.012093   -2.505994   -0.767526
C      -1.245410   -2.010624    0.680896
N      -0.256081   -2.359319    1.672670
C      -0.642952   -2.170229    3.066481
C      -0.550098   -3.537283    2.485497
H       1.073498    1.733848   -0.014433
H      -0.144600    1.419119   -1.275770
H      -0.656631    2.019928    0.321766
H      -2.037725    0.114794    0.561032
H      -2.584315   -1.135807   -1.531793
H      -0.965607   -0.662917   -2.092097
H      -1.545327   -3.403021   -1.089688
H       0.056774   -2.632081   -0.951780
H      -2.270928   -2.265238    1.006180
H       0.134620   -1.791215    3.723028
H      -1.641300   -1.786991    3.274178
H      -1.485786   -4.064871    2.303584
H       0.297193   -4.178670    2.710309
