17

C       0.391856    0.771685    0.454295
O      -0.271594    0.372158   -0.734537
C       0.484933   -0.458439   -1.578165
C       0.494609   -1.931439   -1.151920
C       1.193229   -2.926977   -2.129762
N       2.091997   -3.276276   -1.028683
C       1.550795   -2.409729   -0.114428
O       1.827920   -2.156263    1.029389
H       0.649865   -0.079285    1.094981
H       1.315488    1.325324    0.223416
H      -0.293233    1.438110    0.983927
H       0.012346   -0.393467   -2.565842
H       1.518966   -0.087809   -1.681651
H      -0.519467   -2.231437   -0.874859
H       0.569357   -3.752712   -2.484799
H       1.694046   -2.453986   -2.982109
H       2.872993   -3.912026   -0.966294
