17

C       0.228674    1.421293    0.178184
C       0.011169   -0.089592    0.220041
O       0.149602   -0.597220    1.546334
C      -1.342144   -0.500494   -0.401634
C      -1.443165   -2.019992   -0.527136
C      -2.120479   -2.757537    0.607915
O      -0.958781   -2.589451   -1.478348
H       1.185532    1.676144    0.642188
H       0.230031    1.793138   -0.850807
H      -0.568234    1.946075    0.720903
H       0.804017   -0.586791   -0.349988
H      -0.406009   -0.061757    2.124108
H      -2.156982   -0.092143    0.209184
H      -1.413558   -0.077601   -1.408202
H      -3.154261   -2.412826    0.727079
H      -2.106490   -3.832418    0.424094
H      -1.589923   -2.522891    1.537218
