18

C      -0.355641    1.291201   -0.018691
O       0.388501    0.094808    0.159355
C       0.798229   -0.480849   -1.019416
C       0.019340   -1.561099   -1.775248
O       1.255096   -2.261368   -2.087144
C       2.006715   -1.333952   -1.294720
C       1.933207    0.059581   -1.876420
C       1.872209    0.343159   -3.360347
H       0.229837    2.050713   -0.554059
H      -1.287916    1.112135   -0.572386
H      -0.602015    1.662719    0.978186
H      -0.606898   -2.162804   -1.107196
H      -0.542602   -1.282491   -2.673836
H       2.801203   -1.724646   -0.669894
H       2.532986    0.752220   -1.286877
H       1.412527   -0.492652   -3.893522
H       1.299716    1.251233   -3.577448
H       2.879655    0.477805   -3.768200
