18

O      -0.961650    1.090807   -0.781491
C      -0.148876    0.126032   -0.088060
C      -1.058904   -1.050302    0.293607
C      -0.978405   -2.011756   -0.916798
N      -2.019563   -1.743574   -1.905704
C      -2.834146   -2.700627   -2.418151
O      -2.794540   -3.881925   -2.140070
C       0.391911   -1.686602   -1.487421
C       0.850495   -0.524046   -1.026198
H      -0.375428    1.730914   -1.198896
H       0.316875    0.598741    0.786658
H      -0.654618   -1.547881    1.179506
H      -2.077611   -0.724546    0.511624
H      -1.096404   -3.060703   -0.640208
H      -2.129839   -0.782429   -2.194718
H      -3.560790   -2.275128   -3.139009
H       0.869767   -2.317564   -2.228206
H       1.779095   -0.045158   -1.319005
