17

C       0.006921    1.512486    0.219477
C      -0.017681    0.035617   -0.057214
N      -1.081784   -0.637860    0.049581
C      -1.133710   -2.087688   -0.029302
C      -0.423751   -2.762379   -1.199417
O       0.989132   -2.638109   -1.125826
C       1.438892   -1.357150   -1.399174
O       1.252308   -0.409352   -0.356238
H       0.749528    1.728740    0.994763
H       0.312727    2.064861   -0.675442
H      -0.975710    1.849657    0.546002
H      -0.721073   -2.503562    0.901067
H      -2.189972   -2.380041   -0.065188
H      -0.635697   -3.835720   -1.186018
H      -0.786904   -2.348013   -2.153455
H       2.520747   -1.417477   -1.528012
H       0.958966   -0.966039   -2.311968
