17

C      -0.090885    1.525005    0.012312
C      -0.073809    0.024383    0.001863
C       0.812373   -0.957285   -0.883686
C       1.948449   -0.983873    0.141612
O       2.783016    0.147595    0.126839
C       0.665230   -0.970954    1.000932
C      -0.049699   -1.948643   -0.010079
C      -1.220926   -0.979105   -0.090318
O      -2.412472   -0.991748   -0.172828
H       0.921192    1.925465    0.094941
H      -0.545654    1.909288   -0.906653
H      -0.686934    1.895165    0.853156
H       0.860349   -0.955404   -1.972526
H       2.535381   -1.912476    0.181510
H       3.444820    0.050202    0.818397
H       0.537072   -0.986874    2.083941
H       0.012669   -3.034330   -0.014522
