19

O       0.002749    0.000104    0.434606
C      -0.023434    1.115770   -0.008104
C      -1.313002    1.926764   -0.105015
C      -1.261744    3.109238   -1.051131
C      -1.841196    2.968936   -2.439579
C      -2.535489    3.824490   -1.403287
C       0.033100    3.871434   -0.873208
C       1.196116    2.922758   -1.131610
O       1.143883    1.715113   -0.351024
H      -2.114885    1.226027   -0.349466
H      -1.511048    2.276680    0.918488
H      -1.339787    3.471096   -3.260737
H      -2.300205    2.024729   -2.712828
H      -3.463259    3.456550   -0.977144
H      -2.499844    4.902244   -1.524745
H       0.103756    4.715420   -1.567734
H       0.099794    4.277411    0.144652
H       1.219249    2.636631   -2.190668
H       2.157027    3.380127   -0.882674
