19

C       0.779007    1.301841   -0.056844
C       0.047648   -0.034078   -0.029148
O      -1.353806    0.142777   -0.096472
C       0.648463   -1.117945   -0.980859
C       1.373952   -1.781093    0.237070
C       2.769413   -1.425748    0.397968
C       3.909872   -1.088590    0.591282
C       0.422540   -0.944381    1.177401
O       0.928032   -0.396258    2.354261
H       1.863613    1.171575   -0.011677
H       0.553138    1.836628   -0.988074
H       0.463760    1.918503    0.789145
H      -1.547770    0.795273   -0.777881
H      -0.136711   -1.766263   -1.373947
H       1.288693   -0.774434   -1.795215
H       1.254740   -2.864181    0.318654
H       4.929396   -0.825155    0.730817
H      -0.455319   -1.540081    1.442085
H       1.854486   -0.168740    2.200182
