17

O      -0.067986    1.330213    0.039757
C       0.035785   -0.058267   -0.019757
C       1.017373   -0.681035   -0.998377
C       0.382612   -2.046282   -1.329427
O       0.745777   -2.812069   -2.182487
C      -0.773594   -2.236428   -0.355975
C      -0.150733   -2.316000    1.092657
C      -0.384426   -0.814539    1.237034
C      -1.266648   -0.806661   -0.009557
H       0.681379    1.667135    0.542943
H       1.079142   -0.073932   -1.907735
H       2.036943   -0.815834   -0.620229
H      -1.472761   -3.019522   -0.637843
H      -0.811150   -2.887498    1.748465
H       0.868941   -2.706068    1.187355
H      -0.525566   -0.265990    2.161094
H      -2.232649   -0.359595   -0.198032
