23

C       0.136719    1.428282   -0.257649
C      -0.030086   -0.090916   -0.166134
C       0.558644   -0.832156   -1.371888
C       0.376892   -2.347614   -1.266902
O       0.819897   -3.060922   -2.410711
C       2.214240   -3.201840   -2.520185
C       2.582774   -4.180061   -3.638603
C       1.458224   -4.953794   -4.286933
O       3.743602   -4.306965   -3.950152
H       1.194498    1.707331   -0.316425
H      -0.359849    1.827626   -1.148703
H      -0.291948    1.929272    0.615724
H       0.445627   -0.455873    0.753899
H      -1.096169   -0.337388   -0.073637
H       0.078861   -0.487989   -2.296763
H       1.624534   -0.587277   -1.461711
H       0.884938   -2.730566   -0.365978
H      -0.688064   -2.586213   -1.169334
H       2.724500   -2.250957   -2.732753
H       2.650204   -3.595100   -1.585054
H       0.734343   -4.261027   -4.727501
H       1.864940   -5.620383   -5.047910
H       0.908394   -5.523737   -3.530799
