19

C      -0.010547    1.630563   -0.144438
C      -0.040693    0.137700    0.053672
O       1.190979   -0.601126   -0.093356
C       0.598098   -0.566790    1.199450
C       1.320421    0.124920    2.303080
C       0.766434    0.033511    3.706561
C       2.024409   -0.709013    3.350418
C      -1.200988   -0.588684   -0.560611
O      -2.195358   -0.053206   -0.978891
H       0.854540    2.084401    0.339252
H       0.026065    1.865416   -1.212181
H      -0.924078    2.076039    0.258171
H       0.151615   -1.519847    1.499729
H       1.803527    1.054108    2.025501
H       0.839056    0.912980    4.335719
H      -0.139931   -0.544019    3.856627
H       1.969035   -1.788435    3.256131
H       2.970487   -0.343547    3.732613
H      -1.056095   -1.691863   -0.599859
