19

C       0.422034    1.418586    0.021428
O       1.237525    0.261213    0.230975
C      -0.170224    0.079433    0.010130
C      -0.971280   -0.521347    1.159247
C      -1.091554   -2.009327    0.767066
C      -1.217148   -1.983764   -0.755623
O      -2.520352   -1.526880   -1.199684
C      -1.951633   -0.356705   -1.821373
C      -0.551209   -0.669508   -1.255185
H       0.288705    2.060524    0.891855
H       0.592494    1.947291   -0.916308
H      -0.477397   -0.354400    2.118529
H      -1.965413   -0.063126    1.201116
H      -0.177060   -2.549329    1.039567
H      -1.939259   -2.518439    1.233073
H      -0.938712   -2.923864   -1.243034
H      -2.017558   -0.404045   -2.915850
H      -2.426526    0.570325   -1.476105
H       0.273270   -0.718418   -1.965424
