18

O      -0.257522    0.272579    0.905865
C      -0.117630    1.236137    0.193280
C      -1.241015    1.855383   -0.696649
C      -0.960105    3.385009   -0.725614
C       0.520459    3.471904   -0.402126
C       1.350762    4.237416    0.648350
C       1.913926    2.863114    1.174600
C       1.044115    2.155372    0.126145
N       1.439544    2.685760   -1.201981
H      -1.236899    1.401378   -1.694127
H      -2.205161    1.607166   -0.249592
H      -1.228348    3.855397   -1.677734
H      -1.538670    3.887166    0.056364
H       2.076792    4.946905    0.246048
H       0.722374    4.736819    1.388709
H       2.987923    2.703473    1.067768
H       1.608598    2.641665    2.198195
H       0.936218    2.190523   -1.934529
