19

C      -0.024945    1.533991   -0.056401
C       1.394007    2.116503   -0.001586
C       2.057683    1.778038    1.344515
C       1.886261    0.329630    1.689063
C       2.507669   -0.521647    2.569086
N       1.917929   -1.764258    2.555560
C       0.948895   -1.670307    1.674056
N       0.873011   -0.424230    1.121094
C       0.015836    0.005830    0.023360
H      -0.617611    1.931218    0.777128
H      -0.534207    1.823542   -0.980852
H       1.988406    1.702104   -0.826124
H       1.367231    3.201382   -0.142068
H       3.121462    2.036156    1.328863
H       1.603456    2.404005    2.126310
H       3.342392   -0.302587    3.218707
H       0.269763   -2.461038    1.388991
H      -0.985202   -0.410559    0.172610
H       0.403870   -0.400799   -0.920218
