15

C       0.076791    1.444737    0.008251
N      -0.061131    0.008431    0.001401
C      -1.237128   -0.644634    0.009195
C      -2.503297   -0.106164    0.020887
N      -3.644525   -0.860221    0.027219
N      -3.600019   -2.131071    0.022926
N      -2.358933   -2.710354    0.011777
C      -1.125331   -2.105300    0.004196
O      -0.065107   -2.716082   -0.005225
H       1.137054    1.700647   -0.001707
H      -0.395802    1.898185   -0.872799
H      -0.377117    1.888651    0.903946
H       0.748980   -0.594551   -0.003867
H      -2.672622    0.963812    0.025703
H      -2.384016   -3.721642    0.009115
