16

C       0.002918    1.526372    0.110548
C      -0.009956    0.031639    0.058625
C       1.110164   -0.853985   -0.374818
C       0.562677   -0.982141    1.068065
C       1.354486   -0.783743    2.226040
C       2.018973   -0.618466    3.215535
C      -0.785907   -1.702683    0.938150
O      -1.273589   -2.704301    1.369971
N      -1.278342   -0.713594    0.068049
H       1.000971    1.889613    0.370700
H      -0.268453    1.956266   -0.860309
H      -0.708431    1.889548    0.857287
H       0.936823   -1.664095   -1.077286
H       2.099020   -0.407714   -0.423766
H       2.599084   -0.478423    4.093700
H      -1.805785   -0.936340   -0.769788
