17

O      -0.198037    0.065467    0.328998
C      -0.110579    1.254987    0.305308
O       0.942143    1.898086   -0.237107
C       0.966065    3.328263   -0.209515
C       2.190981    3.843721    0.568842
C       2.398845    5.269649    0.038470
C       1.866129    5.240966   -1.401234
O       2.001346    6.110103   -2.219614
C       1.124355    3.915577   -1.614244
H      -0.870408    1.948216    0.717445
H       0.040069    3.692860    0.255111
H       2.049673    3.788547    1.650534
H       3.044916    3.207543    0.312993
H       1.796652    6.000839    0.593581
H       3.431544    5.623817    0.067704
H       1.769919    3.255556   -2.207764
H       0.195258    4.054797   -2.170238
