17

N       0.801724    0.153874   -0.335009
C      -0.273387    0.443044    0.437897
O      -0.322023    1.349490    1.245049
C      -1.495405   -0.457213    0.196563
N      -1.141962   -1.700572   -0.488242
C      -1.097557   -2.926735    0.270303
C      -2.158241   -2.723092   -0.779715
C      -3.569058   -2.587876   -0.325422
O      -4.503771   -3.043750   -0.935141
H       1.625644    0.726014   -0.260700
H       0.756274   -0.610970   -0.987770
H      -1.975407   -0.593960    1.173335
H      -2.189129    0.109680   -0.434782
H      -0.278115   -3.608142    0.060784
H      -1.417107   -2.893833    1.311861
H      -2.053532   -3.209261   -1.745905
H      -3.712971   -2.046195    0.634895
