19

O       0.095199    1.342501   -0.253776
C       0.053664   -0.047121    0.020410
C       0.678413   -0.782051   -1.175917
O       0.030525   -2.039895   -1.222488
C      -1.349218   -1.772379   -1.001001
C      -1.397339   -0.656341    0.073092
C      -1.547193   -1.137031    1.490262
C      -0.427456   -1.004729    2.199632
C       0.696131   -0.409384    1.393975
H      -0.267821    1.808214    0.506558
H       0.489637   -0.191694   -2.086985
H       1.752781   -0.955235   -1.081209
H      -1.825981   -1.429644   -1.933103
H      -1.824940   -2.705771   -0.689057
H      -2.142087    0.100231   -0.196632
H      -2.476362   -1.555094    1.863769
H      -0.305786   -1.301669    3.235895
H       1.520297   -1.123991    1.276475
H       1.134439    0.485423    1.855085
