17

C       0.087835   -1.194333   -0.010328
C      -0.011769    0.007168    0.006266
C      -0.051385    1.421578    0.019299
C      -1.171637    2.162766    0.059679
C      -1.056079    3.669224    0.043715
C       0.425596    4.059840   -0.057825
C       1.162816    3.269206   -1.162695
C       1.252443    2.223041   -0.028367
O       1.161410    3.300627    0.946366
H       0.154652   -2.253831   -0.019358
H      -2.153873    1.704788    0.111861
H      -1.626334    4.093786   -0.794106
H      -1.490861    4.093066    0.958860
H       0.592434    5.136249    0.030319
H       0.629989    3.000764   -2.076489
H       2.133525    3.712727   -1.389209
H       2.145585    1.610651    0.098100
