14

O      -0.480891    0.544300    0.621138
C       0.142406    1.007199   -0.299764
C       1.260096    2.004013   -0.171305
C       0.962843    3.439015   -0.695422
O       1.238591    4.004662    0.595443
C       1.490746    2.724129    1.186171
C       0.572829    2.397132    2.357432
O      -0.290928    3.132739    2.749841
H      -0.086768    0.717655   -1.350284
H       2.163469    1.571702   -0.612163
H       1.645694    3.808037   -1.468053
H      -0.072930    3.617208   -1.009440
H       2.526303    2.636202    1.550604
H       0.819009    1.438284    2.861423
