14

N       0.075461   -1.134087    0.133129
C       0.049035    0.019563    0.078776
C       0.008241    1.476954   -0.018318
N      -0.330388    2.192141    1.244525
C       0.842372    3.091091    1.104255
C       2.065410    2.539625    1.857860
O       2.406766    1.688087    0.725488
C       1.369695    2.243581   -0.077906
H      -0.626504    1.754670   -0.869900
H      -1.229550    2.656412    1.214907
H       0.650801    4.163765    1.093961
H       2.864224    3.265123    2.051841
H       1.837729    1.964274    2.759305
H       1.710716    2.582513   -1.057660
