17

C       0.053076    1.533774    0.017007
C      -0.018007    0.027813   -0.031221
C      -1.168095   -0.685230    0.024320
C      -2.541535   -0.100952    0.141369
C      -1.092938   -2.144906   -0.032559
N      -2.128733   -2.881001    0.014153
O       0.160088   -2.728006   -0.141158
N       1.338956   -1.996142   -0.198075
C       1.216384   -0.718077   -0.144280
H       1.088282    1.878433   -0.042829
H      -0.496964    1.989089   -0.812879
H      -0.374733    1.927045    0.944835
H      -3.160447   -0.424848   -0.701589
H      -3.038464   -0.486452    1.037462
H      -2.524970    0.988783    0.178790
H      -1.871723   -3.867577   -0.038762
H       2.165538   -0.190505   -0.192281
