19

C      -0.043634   -1.205326    0.041976
C      -0.052311   -0.004081    0.086450
C      -0.015297    1.455139    0.130418
C       1.397291    1.997671   -0.036741
C       2.408397    1.827757    1.134855
C       2.738328    3.353339    1.077309
C       1.776382    3.508704   -0.121176
O       2.426052    3.312386   -1.392226
C       2.053443    1.914285   -1.428058
H      -0.050801   -2.266431    0.004856
H      -0.662149    1.862896   -0.657851
H      -0.434895    1.803776    1.083488
H       1.934247    1.517571    2.069256
H       3.238097    1.145980    0.933237
H       2.417322    3.899824    1.968397
H       3.770734    3.624119    0.847476
H       1.071739    4.345896   -0.137981
H       2.921175    1.250558   -1.524562
H       1.353746    1.708554   -2.249296
