20

C      -0.044221    1.535762    0.145043
C       0.046470    0.038115   -0.065684
C       0.445768   -0.799228   -1.214977
C       1.733693   -0.453776   -1.976731
C       2.141211    1.033777   -2.183509
C       3.039288    0.910533   -0.898758
O       3.005033    1.872675    0.127536
C       2.463864   -0.504537   -0.618372
N       1.192223   -0.874794    0.141903
H       0.873645    2.077248   -0.057689
H      -0.857258    1.944561   -0.466220
H      -0.297373    1.722640    1.194235
H      -0.795746   -0.446481    0.434022
H      -0.189197   -1.624313   -1.531013
H       1.977297   -1.151707   -2.776014
H       2.706166    1.231430   -3.098026
H       1.321027    1.748565   -2.124137
H       4.078765    0.744694   -1.219862
H       3.525877    2.632182   -0.152810
H       3.207094   -1.262310   -0.369326
