22

C      -0.149288    1.437491   -0.287671
O       0.192439    0.088177   -0.041077
C       0.684687   -0.608597   -1.152415
C       1.215540   -1.975342   -0.657637
C       2.434237   -1.775969    0.253241
C       0.118775   -2.790090    0.043140
C      -0.398240   -0.797486   -2.238806
N       0.098469   -1.058231   -3.484968
O      -1.588657   -0.725549   -2.010233
H       0.710473    2.001542   -0.683447
H      -0.988732    1.520857   -0.987078
H      -0.439758    1.870126    0.672456
H       1.525077   -0.049967   -1.606370
H       1.539457   -2.525220   -1.551788
H       2.823478   -2.740337    0.594630
H       3.243402   -1.251828   -0.267488
H       2.160902   -1.186219    1.132244
H      -0.750940   -2.939856   -0.601826
H       0.504909   -3.771736    0.335054
H      -0.223219   -2.272525    0.942785
H       1.081806   -1.165413   -3.662523
H      -0.551569   -1.287224   -4.219214
