22

C      -0.485607    1.401147    0.418144
N      -0.067711    0.029686    0.190817
C       0.263597   -0.375344   -1.169933
C       1.560647    0.237986   -1.675557
C       1.612374   -0.910859   -0.718644
O       2.309880   -2.054651   -1.054669
C       1.257111   -0.481329    0.721179
C       2.187897    0.521282    1.398753
C       1.002234   -1.683199    1.633687
H       0.186296    2.169695   -0.000714
H      -1.473233    1.545976   -0.033333
H      -0.585175    1.586316    1.492229
H      -0.489368   -0.784865   -1.835306
H       1.818779   -0.044708   -2.691648
H       1.865204    1.242275   -1.396003
H       1.859811   -2.809868   -0.659859
H       2.401910    1.388136    0.769584
H       1.762099    0.883527    2.341126
H       3.141030    0.035894    1.632502
H       1.936615   -2.201915    1.876717
H       0.541511   -1.356333    2.570897
H       0.312772   -2.390307    1.161424
