14

N       0.050062    1.378082   -0.021052
C      -0.014077    0.021504    0.020583
C      -1.157776   -0.709398    0.132953
O      -2.360194   -0.056565    0.168974
C      -1.048013   -2.126647    0.215907
N       0.045929   -2.815346    0.188660
O       1.221405   -2.067810    0.058516
C       1.252959   -0.699497   -0.039402
N       2.348378   -0.065064   -0.185263
H       0.943075    1.754488   -0.303921
H      -0.785893    1.890185   -0.246294
H      -3.078118   -0.695366    0.214667
H      -1.942941   -2.738876    0.315996
H       3.144382   -0.700357   -0.218842
