20

C       0.033924    1.552986    0.011800
C      -0.007925    0.024994    0.057842
O       0.688696   -0.474504    1.195425
C      -1.431746   -0.538423    0.000072
C      -2.197474   -0.186411   -1.302806
N      -3.103038   -1.308192   -1.455341
C      -2.745574   -2.440456   -0.766696
O      -3.302411   -3.513418   -0.832031
C      -1.513723   -2.073641    0.064477
H       1.067273    1.901088    0.087818
H      -0.393370    1.943685   -0.917330
H      -0.534249    1.982393    0.846887
H       0.553433   -0.374480   -0.797431
H       0.272392   -0.104707    1.982292
H      -1.999974   -0.121129    0.843214
H      -2.741093    0.760084   -1.222041
H      -1.505541   -0.100325   -2.155843
H      -3.802912   -1.360528   -2.178667
H      -0.637904   -2.542617   -0.400232
H      -1.592408   -2.478416    1.073632
