20

C      -0.152942    1.556519    0.101056
C      -0.005581    0.043545    0.024771
C      -1.351771   -0.637721   -0.200816
N       0.953461   -0.486596   -1.042287
C       2.308755   -0.015099   -0.719460
C       1.775136   -1.154137    0.055381
C       0.838399   -0.650239    1.116118
O       1.251926   -0.070089    2.343688
C       0.431048   -1.248723    2.383537
H       0.786607    2.063702    0.328976
H      -0.536835    1.944278   -0.848396
H      -0.862491    1.823429    0.890378
H      -1.800539   -0.282232   -1.133499
H      -1.231560   -1.721949   -0.277234
H      -2.042561   -0.419414    0.619956
H       3.023988   -0.241774   -1.504384
H       2.461795    0.944207   -0.234921
H       2.149484   -2.167740   -0.041440
H      -0.582081   -1.101670    2.755298
H       0.928660   -2.148922    2.743200
