18

C       0.153139    1.455601    0.176204
C      -0.108461   -0.050983   -0.035587
C      -1.544413   -0.351413    0.012014
N      -2.676601   -0.581619    0.036043
C       0.486183   -0.541115   -1.334170
C       0.040996   -0.257413   -2.781243
C       0.685486   -1.630262   -3.190010
C       1.087978   -1.827357   -1.723386
O       1.906973   -0.700961   -1.356512
H       1.230268    1.636616    0.156292
H      -0.317455    2.047067   -0.613546
H      -0.245652    1.787100    1.137526
H       0.375872   -0.611096    0.773268
H      -1.043976   -0.253090   -2.903869
H       0.469100    0.642645   -3.227357
H      -0.056508   -2.354179   -3.532993
H       1.518980   -1.593642   -3.894438
H       1.235548   -2.742191   -1.160946
