16

C       0.015254    1.518154   -0.022471
C      -0.054367    0.020509   -0.000727
C      -1.184199   -0.687666    0.161811
C      -1.154621   -2.156152    0.070546
O      -0.687066   -2.712309   -1.176928
C       0.165294   -2.830240   -0.038835
C       1.405126   -1.984762   -0.053460
O       2.526126   -2.442466    0.033019
N       1.175551   -0.623504   -0.152814
H       0.696427    1.893781    0.750861
H       0.387008    1.878707   -0.989002
H      -0.970831    1.952405    0.147470
H      -2.127935   -0.178383    0.305267
H      -1.977078   -2.715289    0.511178
H       0.326823   -3.840713    0.329113
H       2.017668   -0.065422   -0.168351
