18

C      -0.778505    1.234642    0.180248
C      -0.105779   -0.101033   -0.094120
C       0.886284   -0.223001   -1.312123
O       1.478063    1.001117   -1.649626
C       1.850678   -1.071142   -0.405585
O       3.202453   -0.691515   -0.510001
C       1.061106   -0.532922    0.772716
N       1.356292   -0.246805    1.969800
O       2.662876   -0.729253    2.274162
H      -0.048034    2.043043    0.113886
H      -1.569661    1.425863   -0.551236
H      -1.224040    1.243879    1.178929
H      -0.846072   -0.909428   -0.150651
H       0.488528   -0.724396   -2.201246
H       2.424039    0.895846   -1.463326
H       1.718409   -2.151519   -0.550734
H       3.534045   -0.608595    0.394658
H       2.811541   -0.378395    3.158491
