16

O       0.081310    0.063656   -0.145551
C       0.012056    1.249565    0.071077
C      -1.242161    2.110794    0.255497
N      -0.834158    3.489708   -0.051490
C       0.594451    3.586372    0.334389
C       1.181186    2.198056    0.132320
C       2.492679    1.688990    0.611883
N       2.294851    1.961640   -0.811597
H      -2.068601    1.768501   -0.370430
H      -1.567670    2.036506    1.303820
H      -0.900723    3.623499   -1.055913
H       1.106839    4.344809   -0.259915
H       0.655028    3.880191    1.390250
H       3.160493    2.376521    1.124527
H       2.532777    0.654065    0.941809
H       2.114859    1.075265   -1.286176
