23

C       0.830807    1.488726   -0.310593
C       0.185507    0.148477    0.033861
O       0.352492   -0.744134   -1.079479
C       1.088898   -1.904566   -0.700975
C       1.976370   -2.329089   -1.861129
C       1.813234   -1.529570    0.605743
O       3.013708   -0.795731    0.402197
C       0.776417   -0.603363    1.256360
C       1.287220    0.253977    2.411931
H       1.911616    1.377762   -0.421436
H       0.417170    1.854794   -1.254710
H       0.626525    2.237090    0.462005
H      -0.892759    0.301896    0.181301
H       0.388884   -2.726025   -0.466418
H       2.698132   -1.542693   -2.099003
H       2.511826   -3.256279   -1.626520
H       1.368407   -2.507163   -2.751806
H       2.008252   -2.420985    1.219795
H       3.647314   -1.369535   -0.038642
H      -0.014321   -1.262642    1.636306
H       2.134287    0.870885    2.107999
H       0.496563    0.910652    2.789670
H       1.616055   -0.378421    3.243037
