20

C       0.051554    1.428606    0.595536
C      -0.004006    0.012828    0.049469
C       0.921460   -0.350674   -1.083610
C       1.174919   -0.898933    0.300880
C      -1.378294   -0.620926    0.072237
C      -2.011004   -0.804914    1.436013
C      -2.239931   -0.525165   -1.117265
O      -1.550466   -1.741760   -0.808336
H       1.063444    1.835310    0.507330
H      -0.623977    2.093510    0.044447
H      -0.227590    1.470972    1.653899
H       0.554908   -1.048950   -1.826065
H       1.582748    0.421848   -1.461803
H       2.011315   -0.509075    0.871641
H       0.973936   -1.953485    0.456268
H      -2.207165    0.157675    1.918192
H      -2.956322   -1.344936    1.344097
H      -1.347216   -1.379843    2.090167
H      -3.323285   -0.567006   -1.010633
H      -1.878003   -0.000218   -2.000108
