13

C      -0.039708    1.413686    0.053040
O       0.003288   -0.015957    0.001816
C       0.644124   -0.564457   -1.121834
C       0.595245   -2.025673   -1.009652
C       0.564183   -3.221120   -0.934432
C      -0.032280   -0.147644   -2.387882
N      -0.584304    0.194272   -3.342322
C       2.071205   -0.126566   -1.198456
N       3.168308    0.231877   -1.220284
H       0.969422    1.840343    0.083326
H      -0.589929    1.825200   -0.800906
H      -0.566097    1.652247    0.977094
H       0.534053   -4.281526   -0.862573
