17

O       0.089901    1.448905    0.149305
C       0.040888    0.034300    0.138241
C      -1.364925   -0.495352   -0.186630
C      -1.409392   -1.988237   -0.266972
C      -0.800085   -2.923196   -1.333813
C      -2.000449   -3.875317   -1.041030
O      -2.432876   -4.849167   -1.578673
C      -2.515891   -2.938340    0.046051
O      -1.396014   -2.750350    0.941349
H      -0.413793    1.758624    0.908782
H       0.746451   -0.282864   -0.637197
H       0.386559   -0.395447    1.089887
H      -2.068073   -0.164595    0.587297
H      -1.692780   -0.062664   -1.138620
H      -0.852683   -2.553066   -2.362403
H       0.203062   -3.295689   -1.118625
H      -3.511135   -2.784074    0.446932
