16

C       0.050715    1.283983    0.133348
O      -0.000263   -0.122910    0.088388
C      -1.318324   -0.608232   -0.032124
C      -1.285527   -2.102101    0.001075
N      -1.682576   -2.804368   -1.026154
O      -1.509760   -4.140937   -0.578524
C      -1.025035   -4.046042    0.664955
N      -0.811133   -5.199120    1.347455
N      -0.862603   -2.823323    1.090748
H       1.101400    1.566261    0.230466
H      -0.357500    1.738522   -0.783269
H      -0.507905    1.685091    0.993928
H      -1.943033   -0.245033    0.800912
H      -1.784522   -0.283251   -0.974160
H      -0.688182   -6.035135    0.798907
H      -0.218490   -5.112537    2.157434
