16

N       0.104814    1.331683    0.088545
C      -0.059235   -0.040119   -0.064696
C      -1.214222   -0.795968    0.073108
N      -0.751101   -2.109060    0.118894
C      -0.894186   -3.400806   -0.598170
C      -0.368633   -3.304815   -2.004579
C       0.607982   -3.404427   -0.836393
C       0.588338   -2.048106   -0.168531
N       1.058241   -0.829873   -0.296961
H       0.936710    1.661685   -0.382409
H      -0.705700    1.878522   -0.165423
H      -2.217638   -0.506040    0.336877
H      -1.542677   -4.179061   -0.219076
H      -0.477747   -4.195147   -2.619330
H      -0.460513   -2.365882   -2.541597
H       1.314643   -4.212755   -0.714799
