19

C      -0.174234    1.131347    0.241856
O      -0.074116   -0.263410    0.081502
C       0.613339   -0.633800   -1.084027
C       0.683029   -2.150900   -1.187276
O       1.365440   -2.698140   -0.068679
C       0.581937   -3.734869    0.467538
C      -0.695695   -3.324983    1.171231
C      -0.699139   -3.742516   -0.285193
O      -0.621239   -2.710132   -1.236144
H       0.816962    1.606173    0.313384
H      -0.720732    1.599888   -0.591728
H      -0.721157    1.314247    1.169702
H       0.108075   -0.250478   -1.986163
H       1.643962   -0.241525   -1.083134
H       1.228159   -2.411193   -2.112232
H       1.149222   -4.614962    0.746874
H      -1.115911   -4.018117    1.893324
H      -0.822918   -2.268908    1.377141
H      -1.211450   -4.629081   -0.640079
