18

C       0.044188    1.676049   -0.029820
C       0.019442    0.167047   -0.038834
C       0.500772   -0.696361   -1.189752
C       1.143932   -0.109591   -2.371432
C       2.288185    0.592023   -2.315409
C       3.015297    0.764959   -1.049955
O       3.987364    1.486391   -0.939140
C       2.533178   -0.068119    0.147038
N       1.199401   -0.670718    0.104222
H       0.763699    2.102932   -0.731224
H      -0.947080    2.062376   -0.287370
H       0.290063    2.044625    0.972411
H      -0.833504   -0.248453    0.498044
H      -0.057547   -1.611105   -1.382099
H       0.650883   -0.279917   -3.326033
H       2.741678    1.031719   -3.197537
H       3.261382   -0.880570    0.266984
H       2.621121    0.552420    1.044058
