11

C       0.622947    1.328256   -0.183972
C       0.138583   -0.086536   -0.019215
O       0.042703   -0.679824    1.027123
C      -0.366991   -0.797886   -1.288318
O      -1.018779   -0.227231   -2.129528
C      -0.055364   -2.291215   -1.460216
O       0.900162   -2.821501   -0.964502
H       1.557329    1.329457   -0.758537
H      -0.105209    1.903926   -0.763074
H       0.792415    1.782007    0.792777
H      -0.747490   -2.796914   -2.166428
