17

C      -0.028815    1.546356    0.061748
C      -0.035791    0.051041   -0.021308
C       0.012236   -0.762666   -1.137536
C       0.084406   -0.820976   -2.637359
C       0.085413   -2.325050   -2.887237
C       0.024131   -2.980870   -1.721148
N      -0.019518   -2.045994   -0.677057
N      -0.084900   -2.155512    0.657118
C      -0.094677   -0.878643    1.053664
H       0.878158    1.978682   -0.376952
H      -0.882898    1.991622   -0.461936
H      -0.076682    1.874966    1.103629
H      -0.768140   -0.327830   -3.122331
H       0.986967   -0.340766   -3.037372
H       0.129488   -2.776632   -3.866510
H       0.005440   -4.035807   -1.495716
H      -0.144085   -0.649879    2.109451
