16

O       0.063033    1.400654    0.118784
C       0.039471    0.001721    0.032846
C      -1.358675   -0.573647   -0.237955
C      -1.488089   -0.607498   -1.722617
N      -0.248633   -0.030144   -2.267874
C       0.696822   -0.567396   -1.256285
C       0.304099   -2.058339   -1.129319
O       0.999673   -3.038400   -1.128935
C      -1.180100   -1.912582   -0.985551
H      -0.159045    1.720640   -0.767173
H       0.502557   -0.392489    0.940802
H      -2.197339   -0.401839    0.422461
H      -2.413731   -0.441471   -2.255801
H      -0.040770   -0.416916   -3.186166
H       1.741916   -0.334504   -1.437672
H      -1.864442   -2.743803   -0.900070
