13

C      -0.069405    1.466517   -0.043366
N      -0.122154    0.017159   -0.103198
C       0.504053   -0.602089   -0.995138
O       1.284579   -0.074178   -1.990057
C       1.801516   -1.137720   -2.775969
O       1.317551   -2.354167   -2.238987
C       0.523041   -2.099169   -1.155040
O      -0.014146   -2.944263   -0.513606
H       0.544566    1.933449   -0.821171
H      -1.091497    1.854457   -0.111733
H       0.313076    1.759907    0.940236
H       1.455686   -1.030908   -3.809757
H       2.895879   -1.127826   -2.731312
