23

C      -0.221248    1.533565    0.028237
C      -0.097590    0.082430    0.001119
C       0.007115   -1.117496   -0.021193
C       0.130514   -2.583154   -0.043924
C      -1.277421   -3.214505    0.081473
C       0.753316   -3.010157   -1.391747
C       0.961356   -3.013140    1.177489
C       1.686504   -4.332105    1.270190
C       2.464515   -3.037749    1.209150
H       0.407871    1.973270    0.810385
H       0.081621    1.978089   -0.926526
H      -1.254156    1.843607    0.222861
H      -1.919932   -2.900036   -0.745980
H      -1.201538   -4.306623    0.070544
H      -1.757251   -2.912040    1.016599
H       1.744010   -2.572546   -1.535857
H       0.834353   -4.099157   -1.461492
H       0.118851   -2.667721   -2.213545
H       0.495475   -2.684483    2.102873
H       1.644325   -4.871896    2.210034
H       1.718806   -4.974592    0.397477
H       3.007573   -2.824945    0.295422
H       2.961294   -2.685464    2.106437
