24

C       0.162447    1.408693   -0.015674
C       0.104031   -0.116622    0.134090
C      -1.309003   -0.647380    0.256583
C      -2.132794   -0.917326   -0.978047
C      -1.635907   -2.065921   -0.132852
C       1.589640    1.942383   -0.133429
N       1.596096    3.390181   -0.318026
C       1.624567    4.194938    0.898819
C       2.830141    4.082151    0.032069
H      -0.405253    1.719152   -0.900141
H      -0.327286    1.881154    0.846308
H       0.590798   -0.588327   -0.730909
H       0.687878   -0.422271    1.013816
H      -1.858047   -0.255265    1.109976
H      -3.191639   -0.683815   -0.960466
H      -1.661655   -0.760052   -1.943277
H      -0.833700   -2.678014   -0.532682
H      -2.355305   -2.615631    0.464232
H       2.177091    1.640200    0.755131
H       2.083455    1.494723   -1.005572
H       1.016896    5.095283    0.889933
H       1.652607    3.673398    1.855111
H       3.659500    3.487317    0.412841
H       3.119669    4.898051   -0.624287
