21

O       0.098046    1.341275   -0.706684
C       0.011774   -0.020082   -0.338341
C      -1.376828   -0.382051    0.128308
C      -2.354174    0.522222    0.153080
C      -3.780034    0.357536    0.608959
C      -4.480068   -0.972960    0.522517
C      -4.030496   -2.180783    0.183066
C      -2.627194   -2.606293   -0.162375
C      -1.514311   -1.826103    0.556394
H       0.997459    1.515804   -0.996207
H       0.279212   -0.679745   -1.184722
H       0.727191   -0.260217    0.469552
H      -2.097038    1.529321   -0.161088
H      -3.863728    0.725467    1.647199
H      -4.395106    1.072193    0.041892
H      -5.540719   -0.897990    0.761576
H      -4.765007   -2.984165    0.157321
H      -2.522383   -3.670176    0.085329
H      -2.469597   -2.541025   -1.248403
H      -0.561918   -2.343165    0.382932
H      -1.693055   -1.879153    1.638163
