21

C      -0.050046    1.546303   -0.091670
C       0.026028    0.021968    0.047113
C      -1.348145   -0.613164    0.135172
O      -2.133779   -0.412886   -1.068695
C      -2.488272   -1.808256   -1.126182
C      -1.518986   -2.146498    0.018773
C      -0.355180   -3.147075   -0.124181
C      -0.989841   -3.840278    1.095765
O      -2.036612   -2.846097    1.159306
H       0.947479    1.984916   -0.188027
H      -0.631722    1.819082   -0.976462
H      -0.533739    1.998085    0.781137
H       0.560445   -0.403187   -0.811332
H       0.593024   -0.249792    0.947548
H      -1.891260   -0.242358    1.018126
H      -3.537536   -1.988639   -0.857642
H      -2.278127   -2.249543   -2.108326
H      -0.357040   -3.724300   -1.050625
H       0.641015   -2.732235    0.035982
H      -1.391934   -4.844725    0.920211
H      -0.385431   -3.853251    2.009984
