18

N      -0.207537   -1.120689    0.247923
C      -0.108652    0.029570    0.187580
C       0.012618    1.467105    0.074044
O       0.714419    2.139817    1.120725
C       1.327879    2.101701   -0.172506
C       2.644127    1.330605   -0.299839
C       3.467311    2.136936   -1.324637
C       2.969405    3.583937   -1.144409
C       1.451798    3.413342   -0.949131
H      -0.892335    1.964139   -0.273234
H       3.128402    1.336617    0.682456
H       2.496025    0.285272   -0.581104
H       4.544249    2.030328   -1.174481
H       3.244434    1.792916   -2.341526
H       3.414993    4.022407   -0.243809
H       3.219785    4.234582   -1.985809
H       0.958392    3.310917   -1.923063
H       0.968296    4.233485   -0.413248
