16

O       0.195639    1.295962   -0.219600
C       0.105356   -0.079860   -0.027387
C       0.777716   -0.855204   -1.174568
O       0.118602   -2.107020   -1.259801
C      -1.255613   -1.884207   -0.961646
C      -1.258224   -0.836753    0.131250
O      -0.783958   -1.372579    1.417162
C       0.362019   -0.616709    1.367345
N       1.249599   -0.380950    2.220685
H       0.403723    1.702093    0.629356
H       0.648957   -0.255852   -2.090020
H       1.841459   -1.037951   -1.011097
H      -1.799458   -1.495531   -1.838645
H      -1.698389   -2.836044   -0.659137
H      -2.170499   -0.254985    0.259953
H       1.075547   -0.868260    3.101137
