17

O      -0.142193    1.355817    0.073794
C       0.030923   -0.023769    0.019378
C       1.130414   -0.741238    0.829195
C       1.085518   -1.853307   -0.256650
O       0.095252   -2.817332    0.067482
C      -1.134602   -2.222362   -0.257901
C      -1.053158   -1.303914   -1.429011
C      -1.337050   -0.739627   -0.019362
C       0.405071   -0.837506   -1.271816
H       0.724934    1.770243    0.003563
H       2.072533   -0.181414    0.776638
H       0.934919   -1.047304    1.859638
H       2.009164   -2.368272   -0.520449
H      -1.974052   -2.889886   -0.108551
H      -1.657393   -1.344305   -2.325208
H      -2.247408   -0.330474    0.403025
H       0.983233   -0.433034   -2.098388
