23

C       0.059199    1.377940    0.110776
O      -0.061714   -0.014182   -0.063650
C       0.666699   -0.542655   -1.167022
C       2.155692   -0.677355   -0.835194
C       0.018648   -1.896014   -1.508308
C      -1.497351   -1.756398   -1.760899
C       0.648036   -2.519138   -2.756047
C       0.747514   -4.033009   -2.782271
O       1.023554   -1.839035   -3.685484
H       1.078044    1.684801    0.388729
H      -0.228519    1.927820   -0.798810
H      -0.617482    1.660077    0.921641
H       0.548322    0.118712   -2.038459
H       2.709025   -1.061603   -1.695698
H       2.591233    0.290496   -0.571829
H       2.297145   -1.354485    0.013927
H       0.165324   -2.574019   -0.657774
H      -1.961416   -2.726835   -1.962751
H      -1.975211   -1.316232   -0.885023
H      -1.681021   -1.107201   -2.623039
H      -0.196951   -4.496975   -2.479467
H       1.033750   -4.374827   -3.777695
H       1.503891   -4.355951   -2.056430
