18

C       0.000506    1.498578   -0.034857
C       1.314354    0.735382   -0.040192
C      -0.009973    0.010294    0.038703
C      -0.420122   -0.746769    1.286120
C       0.021201   -2.207171    1.135644
O      -0.446150   -2.736684   -0.099638
C       0.008059   -1.968900   -1.180254
O      -0.451591   -0.637660   -1.133142
H      -0.272563    2.059413    0.852546
H      -0.321750    1.938399   -0.971733
H       1.851434    0.684407   -0.980388
H       1.942313    0.777920    0.843395
H       0.024594   -0.300101    2.181347
H      -1.510630   -0.709029    1.389544
H       1.121170   -2.275044    1.178918
H      -0.393391   -2.841433    1.923127
H       1.113743   -1.978273   -1.210329
H      -0.403428   -2.414138   -2.088015
