15

O      -0.079576   -0.139077    0.267607
C      -0.039002    1.044813    0.006138
C       1.178667    1.819645   -0.113774
C       2.526750    1.466614    0.022333
N       3.382835    2.519106   -0.174338
C       2.552114    3.513891   -0.431237
C       2.282895    4.969436   -0.765903
C       0.763968    4.531049   -0.734065
N       1.257968    3.171886   -0.411071
H      -0.971782    1.630253   -0.163963
H       2.893401    0.478558    0.257500
H       2.564759    5.695941   -0.001002
H       2.639699    5.309940   -1.740108
H       0.160608    4.975563    0.060077
H       0.235857    4.587533   -1.688114
