21

C      -0.045810    1.537769   -0.051843
C       1.314461    0.868563   -0.042736
C       0.054175    0.043299    0.023145
C      -0.342710   -0.688325    1.293544
C       0.585669   -1.853997    1.692856
O       1.214030   -2.532572    0.619855
C       0.391521   -2.866628   -0.482459
C       0.375728   -1.751324   -1.526520
O      -0.365087   -0.601184   -1.155133
H      -0.367666    2.082414    0.829092
H      -0.388396    1.947956   -0.994631
H       1.869032    0.857478   -0.973990
H       1.930767    0.946610    0.846515
H      -0.379788    0.012133    2.135475
H      -1.367078   -1.047772    1.145463
H       1.416036   -1.480374    2.300724
H       0.019289   -2.564776    2.316675
H       0.830562   -3.762071   -0.939734
H      -0.632175   -3.119545   -0.168760
H       1.419713   -1.484918   -1.750807
H      -0.093801   -2.115205   -2.447240
