18

O       0.627308    0.519244    1.231432
C       0.272111    1.292376    0.366801
N       1.045715    1.689539   -0.678714
C       2.404901    1.208818   -0.858196
C       3.430594    2.023355   -0.061533
N       4.768675    1.486676   -0.288632
C       5.801921    2.238929    0.413491
C       7.128292    1.661957    0.175909
N       8.171893    1.197364    0.006420
H      -0.735185    1.752698    0.338126
H       0.668428    2.357825   -1.330573
H       2.429417    0.166625   -0.524123
H       2.658398    1.231897   -1.921175
H       3.417584    3.065483   -0.406566
H       3.132003    2.028170    1.000274
H       4.803885    0.516217    0.009697
H       5.803815    3.269808    0.037534
H       5.650021    2.306159    1.506258
