19

C      -0.116333    1.429138   -0.032054
C       1.266118    0.810572    0.046672
C       0.045696   -0.055132    0.010909
C      -0.547412   -1.006239    1.093785
C      -1.376039   -1.548524   -0.056036
C      -2.615703   -1.589034   -0.526984
C      -2.561126   -1.196511   -1.996957
O      -1.252912   -0.621294   -2.196392
C      -0.448150   -1.020396   -1.105392
H      -0.498701    1.933775    0.849751
H      -0.431899    1.863675   -0.974765
H       1.894860    0.841933   -0.837831
H       1.808869    0.895212    0.983041
H       0.198840   -1.706852    1.483016
H      -1.091680   -0.558097    1.928215
H      -3.544772   -1.706067    0.016495
H      -2.705903   -2.040107   -2.691112
H      -3.319436   -0.439896   -2.237376
H       0.359177   -1.686066   -1.446107
