19

C      -0.252952    1.444818   -0.125504
N      -0.345595    0.003698   -0.319006
C       0.563435   -0.590323   -0.939891
O       1.717085   -0.103591   -1.545771
C       2.021112   -1.404052   -2.138898
C       2.998553   -2.205314   -1.264380
C       1.791516   -2.789319   -0.466291
C       0.788012   -2.024222   -1.386111
N      -0.264144   -2.806952   -1.960653
H       0.537438    1.922621   -0.716280
H      -1.214285    1.902321   -0.381563
H      -0.070176    1.657888    0.934239
H       2.142234   -1.334802   -3.219358
H       3.550698   -2.965783   -1.821136
H       3.705005   -1.587703   -0.706996
H       1.686709   -3.869322   -0.592044
H       1.731298   -2.545956    0.595828
H      -0.672830   -3.412045   -1.255335
H      -1.012233   -2.209565   -2.299904
