19

O      -0.028572    1.400292   -0.104775
C       0.071231   -0.005971   -0.020346
C       0.139195   -0.591105    1.424770
C      -1.387031   -0.295706    1.509253
C      -1.341311   -0.653195   -0.008702
C      -1.008997   -2.143496    0.049036
O      -0.506493   -2.609241   -1.202864
C       0.136069   -2.106134    1.152481
O       1.352730   -2.626199    0.674759
H       0.834382    1.768335    0.109422
H       0.794139   -0.391216   -0.747610
H       0.855699   -0.224591    2.160989
H      -1.995954   -0.924025    2.167192
H      -1.603953    0.757344    1.673573
H      -2.110363   -0.339619   -0.713687
H      -1.870679   -2.745134    0.355689
H      -0.675924   -3.553915   -1.264759
H      -0.146013   -2.666956    2.051362
H       1.237497   -2.715895   -0.283017
