21

O      -0.062375    1.300280   -0.506527
C      -0.002003   -0.021749    0.010028
C      -1.375273   -0.657511   -0.156457
C      -1.431564   -2.092042    0.383075
C      -2.807293   -2.713671    0.258816
C      -3.320682   -3.253769   -1.055819
O      -2.400384   -3.246887   -2.123844
C      -2.991438   -4.210975    0.066918
O      -1.879192   -5.035302   -0.106110
H       0.806388    1.700290   -0.408276
H       0.752395   -0.623706   -0.523265
H       0.281085   -0.019274    1.076074
H      -2.112522   -0.028259    0.357592
H      -1.640545   -0.652707   -1.219058
H      -0.697401   -2.712817   -0.138581
H      -1.139816   -2.105261    1.441598
H      -3.573114   -2.230562    0.862014
H      -4.351833   -3.059710   -1.343119
H      -2.741473   -3.832332   -2.808890
H      -3.789127   -4.716270    0.603238
H      -1.498804   -4.790191   -0.961252
