21

C       0.022761    1.511910    0.093149
C       0.053104   -0.013328   -0.019331
O      -1.256657   -0.569598    0.086112
C       0.736973   -0.495785   -1.277064
C       2.195412   -0.199462   -1.754790
C       1.570603   -1.115249   -2.828826
O       2.258261   -1.526113   -3.954353
C       0.981578   -1.982234   -1.676025
C       0.280065   -0.238771   -2.751918
H       1.034180    1.929516    0.109534
H      -0.508925    1.953851   -0.758185
H      -0.492860    1.808237    1.010353
H       0.592193   -0.423940    0.843936
H      -1.773686   -0.224314   -0.650516
H       2.416485    0.827585   -2.057171
H       3.001896   -0.630340   -1.155256
H       1.692060   -2.121273   -4.457478
H       1.698726   -2.538667   -1.066261
H       0.090285   -2.574811   -1.899072
H      -0.655225   -0.714616   -3.064454
H       0.362590    0.784924   -3.126837
