17

C      -0.173783    1.405915   -0.286738
O      -0.175357    0.005184   -0.453868
C      -1.110077   -0.639100    0.388474
C      -1.072954   -2.109883    0.129938
C      -0.905074   -2.823804   -1.021789
C      -0.683269   -2.444207   -2.440980
O      -0.961622   -4.121378   -0.710221
N      -1.179919   -4.202868    0.700024
N      -1.232828   -3.027144    1.142747
H       0.569443    1.813761   -0.975138
H      -1.156543    1.845605   -0.517900
H       0.097412    1.689859    0.741408
H      -0.880533   -0.463013    1.450581
H      -2.120876   -0.232514    0.208624
H       0.204557   -2.945513   -2.838429
H      -1.535631   -2.741787   -3.060994
H      -0.542955   -1.365777   -2.508333
