20

C      -0.206900    1.429643    0.001115
N       0.037853   -0.003554   -0.016928
C       1.173854   -0.406189   -0.878895
C       1.304805   -1.908843   -0.846317
C       1.882419   -1.081670    0.276494
O       3.215020   -1.099916    0.643805
C       0.767792   -0.552468    1.159352
C       0.978975    0.124506    2.475207
C       0.163760   -1.155537    2.386938
H       0.686737    2.036772    0.229603
H      -0.589518    1.734574   -0.978677
H      -0.977994    1.664079    0.741726
H       1.528295    0.221428   -1.687153
H       0.421614   -2.525616   -0.701481
H       2.053608   -2.304795   -1.526915
H       3.468568   -2.013049    0.817123
H       1.978002    0.075957    2.895805
H       0.448760    1.047587    2.681425
H      -0.911152   -1.069967    2.506809
H       0.589780   -2.074361    2.778173
