16

O      -0.010409    0.029994   -0.039430
C      -0.025866    1.221742    0.014791
C      -1.161152    2.268941    0.051872
N      -0.757915    2.703175    1.417544
C       0.492002    3.387220    1.002840
C      -0.041514    4.453928    0.019535
C      -0.559695    3.369282   -0.933830
O       0.713201    2.782376   -1.307731
C       1.077614    2.294439    0.005761
H      -2.189438    1.939446   -0.057604
H      -1.416216    3.359211    1.829814
H       1.130932    3.690571    1.829500
H      -0.801541    5.085161    0.488248
H       0.711048    5.070818   -0.473941
H      -1.129104    3.635250   -1.820712
H       2.124653    2.012959    0.054807
