19

C       0.045730    1.568045   -0.007705
C      -0.032666    0.060961   -0.071754
C       0.268759   -0.725922   -1.353535
C      -0.600244   -1.891297   -0.771665
C       0.324796   -2.733450    0.061880
C       0.921828   -2.076568    1.061102
C       0.355642   -0.701862    1.276920
O      -1.082135   -0.914654    1.553208
C      -1.309272   -0.774614    0.161942
H       1.087120    1.911201   -0.030114
H      -0.472686    2.027696   -0.856086
H      -0.411642    1.944938    0.913262
H      -0.222657   -0.240373   -2.203951
H       1.303477   -0.964164   -1.613661
H      -1.229482   -2.453228   -1.461350
H       0.505199   -3.776368   -0.175924
H       1.648723   -2.505677    1.740437
H       0.829165   -0.109160    2.061582
H      -2.335599   -0.502400   -0.094588
