17

O      -0.358052    1.491898   -0.290812
C       0.038417    0.149696   -0.006910
C      -1.167944   -0.811823    0.235746
C      -1.465975   -1.538296   -1.112616
C      -0.135683   -1.461161   -1.809272
C       0.561784   -1.969839   -2.853741
O       1.805088   -1.396149   -2.896418
C       1.890732   -0.510574   -1.863902
C       0.727441   -0.516032   -1.165456
H      -0.643257    1.523193   -1.210184
H       0.657964    0.229973    0.890617
H      -0.875087   -1.556440    0.983629
H      -2.023276   -0.259688    0.631912
H      -1.825355   -2.559349   -0.956990
H      -2.243859   -1.016278   -1.683624
H       0.366517   -2.700307   -3.620964
H       2.828608    0.012551   -1.777438
