21

C       0.461897   -1.230898    1.679096
C      -0.004432   -0.242411    0.598781
N      -1.300613   -0.511598   -0.039519
C      -1.456357   -1.820158   -0.679021
C      -0.459368   -2.108566   -1.805158
O       0.796970   -2.609294   -1.364342
C      -2.436875   -0.220662    0.825607
C      -2.499256    1.197861    1.202504
N      -2.556043    2.308706    1.514254
H       1.394110   -0.871972    2.126782
H      -0.269345   -1.329166    2.487907
H       0.648998   -2.221271    1.256900
H      -0.062523    0.766415    1.020251
H       0.750746   -0.178072   -0.192731
H      -1.415694   -2.661686    0.035611
H      -2.458873   -1.834310   -1.125107
H      -0.888548   -2.898375   -2.431576
H      -0.345131   -1.214273   -2.432411
H       1.386937   -1.868491   -1.206356
H      -3.358764   -0.458893    0.283203
H      -2.464895   -0.816930    1.756712
