20

C      -0.106734    1.402337   -0.320137
C      -0.032191   -0.103551    0.016195
N       0.682484   -0.426041    1.246894
C      -1.451366   -0.639763    0.139079
O      -2.034305   -0.805643    1.180833
O      -1.985962   -0.873117   -1.077742
C      -3.335584   -1.309028   -1.097483
C      -4.380388   -0.326798   -1.532599
C      -3.937149   -1.446821   -2.455526
H       0.904743    1.809887   -0.416584
H      -0.633357    1.576097   -1.263534
H      -0.622891    1.948128    0.476572
H       0.441773   -0.618333   -0.827978
H       1.453594    0.219312    1.382029
H       0.043169   -0.311092    2.028744
H      -3.562706   -2.019984   -0.313548
H      -5.357329   -0.379018   -1.065760
H      -4.043330    0.674348   -1.775765
H      -3.311349   -1.174512   -3.297688
H      -4.607315   -2.279180   -2.637059
