18

N      -0.111894    1.463571    0.213555
C      -0.073102    0.034224   -0.039209
C      -1.519511   -0.566167   -0.115383
O      -2.488432    0.425440   -0.363149
C      -1.479588   -1.553743   -1.303765
N      -0.071028   -1.744403   -1.696491
C       0.609354   -0.494673   -1.358635
C       0.474172    0.490399   -2.444325
N       0.370413    1.310942   -3.251968
H       0.767390    1.800210    0.588040
H      -0.293587    1.976423   -0.645074
H       0.459401   -0.439233    0.790898
H      -1.738894   -1.090087    0.826974
H      -2.264702    1.164981    0.220481
H      -1.938409   -2.520066   -1.087408
H      -2.029900   -1.093600   -2.131279
H       0.346656   -2.492635   -1.154087
H       1.679196   -0.673864   -1.215670
