23

C      -0.173961    1.601499    0.007192
C       0.000744    0.073081   -0.018940
C      -1.367660   -0.605154    0.064108
C       0.759907   -0.402136   -1.276941
C       2.256616   -0.062831   -1.235812
C       2.870733   -0.562785    0.066550
O       4.217194   -0.113244    0.120885
C       2.056417   -0.021560    1.248253
O       0.691056   -0.380338    1.161354
H       0.771043    2.138274   -0.106683
H      -0.832489    1.920771   -0.806570
H      -0.626202    1.906428    0.955353
H      -1.971410   -0.369370   -0.817462
H      -1.247056   -1.690204    0.126341
H      -1.907323   -0.270330    0.954709
H       0.641369   -1.490037   -1.353023
H       0.296025    0.029513   -2.170810
H       2.777144   -0.506736   -2.090372
H       2.419071    1.020110   -1.296534
H       2.822625   -1.664035    0.085607
H       4.625572   -0.482898    0.910440
H       2.415770   -0.444183    2.194199
H       2.199535    1.069092    1.298011
