18

C      -0.088175    1.570629   -0.159086
C      -0.005082    0.053348   -0.057488
N      -1.262213   -0.623684    0.256621
C       0.688910   -0.684253   -1.221828
N       2.068815   -0.161246   -1.295341
C       1.739879   -1.234410   -0.334133
C       1.127417   -0.552312    0.898744
C       1.968978    0.350943    1.665718
N       2.621923    1.072117    2.290630
H       0.876047    2.000316   -0.438222
H      -0.828912    1.853426   -0.916022
H      -0.396348    2.006994    0.797388
H      -1.651226   -0.233582    1.112555
H      -1.942364   -0.418566   -0.472465
H       0.198886   -1.132871   -2.077184
H       2.526832   -0.596983   -2.094394
H       2.252192   -2.187221   -0.349232
H       0.657727   -1.280872    1.562309
