22

O       0.072684    1.458408    0.207001
C       0.022216    0.040833    0.260349
C      -1.284237   -0.525939   -0.306040
C      -1.349917   -2.034425   -0.240286
C      -0.408845   -2.868690   -1.107755
C      -0.991042   -4.301500   -1.083840
C      -2.507466   -4.118747   -0.833568
C      -2.612591   -2.809304   -0.069804
N      -1.712492   -2.597806    1.076908
H      -0.627903    1.795111    0.774734
H       0.876328   -0.302709   -0.333097
H       0.165140   -0.331186    1.286254
H      -2.123298   -0.114730    0.268816
H      -1.399924   -0.185746   -1.342736
H      -0.419923   -2.462062   -2.127032
H       0.631992   -2.838674   -0.766572
H      -0.784395   -4.849096   -2.006457
H      -0.537649   -4.885320   -0.276196
H      -3.051075   -4.020267   -1.781271
H      -2.949817   -4.966003   -0.297863
H      -3.581679   -2.324960    0.016821
H      -1.181106   -3.439550    1.286392
