18

O       0.591672    0.059412    1.215565
C      -0.167208    0.374696    0.057513
C      -1.553822   -0.223636    0.217268
C      -1.699368   -1.525507    0.909872
N      -2.150049   -0.272256    1.556807
C      -2.506015    0.194934   -0.899949
O      -1.975846   -0.129324   -2.158831
C      -3.891560   -0.407784   -0.742474
O      -4.403280   -1.022054   -1.649334
H       1.487994    0.381415    1.089518
H      -0.260757    1.466488   -0.066029
H       0.290306   -0.026492   -0.855838
H      -2.492342   -2.213582    0.627568
H      -0.796288   -1.991657    1.288691
H      -1.444226    0.013818    2.232302
H      -2.648727    1.290765   -0.816908
H      -2.668062   -0.648431   -2.600711
H      -4.394790   -0.241290    0.224981
