20

C       0.056301    1.527329    0.135151
C       0.034561    0.007476    0.028857
C       0.477240   -0.474296   -1.355153
N       0.480825   -1.898084   -1.627938
C       0.836315   -2.800500   -0.824060
O       1.217463   -2.778247    0.483404
C       0.675386   -1.818789    1.403324
C       1.348394   -2.085094    2.734781
O       0.903457   -0.498683    1.042620
H       1.066872    1.908861   -0.040435
H      -0.616848    1.975727   -0.600939
H      -0.259049    1.842486    1.132812
H      -0.984937   -0.363561    0.224712
H      -0.163359    0.003795   -2.105770
H       1.495903   -0.098549   -1.530699
H       0.918967   -3.824854   -1.190043
H      -0.410706   -2.006265    1.449243
H       2.417364   -1.874370    2.651249
H       0.917634   -1.437403    3.501373
H       1.212793   -3.128973    3.024300
