21

C       0.000488    1.018086   -0.884898
N      -0.020934   -0.128488    0.003283
C       1.233386   -0.530818    0.605604
C      -1.199080   -0.831763    0.150315
O      -2.266102   -0.436799   -0.301611
N      -1.097940   -2.001525    0.891380
C      -2.256894   -2.878548    0.954079
C      -2.304397   -3.865461   -0.206197
O      -1.110431   -4.641600   -0.144450
H       0.359317    1.911242   -0.357904
H       0.658194    0.844188   -1.747931
H      -1.015222    1.192562   -1.235697
H       1.065123   -0.971898    1.591114
H       1.800835   -1.246210   -0.010506
H       1.862033    0.354026    0.743649
H      -0.224796   -2.503464    0.836783
H      -2.222590   -3.434287    1.897688
H      -3.150280   -2.253406    0.942873
H      -3.199294   -4.500601   -0.115860
H      -2.372389   -3.307598   -1.150403
H      -1.042326   -5.158877   -0.951490
