19

C      -0.441361    1.421557    0.023348
C       0.064145   -0.011487   -0.079346
C       1.396001   -0.215830   -0.884769
C       2.045624   -0.766863    0.399145
O       3.136998   -1.176023    0.686201
C       0.768147   -0.593786    1.164413
C       0.620069   -0.248568    2.634732
C       0.210128   -1.599256    2.142593
O      -1.142169   -1.893953    1.970173
H       0.344879    2.096412    0.380089
H      -0.781415    1.786085   -0.951713
H      -1.285456    1.493330    0.717384
H      -0.737190   -0.668020   -0.427548
H       1.354473   -0.934087   -1.708244
H       1.863627    0.704278   -1.249820
H       1.534223   -0.156920    3.212484
H      -0.172082    0.449677    2.885857
H       0.852065   -2.448183    2.378114
H      -1.532649   -2.032706    2.839588
