20

C      -0.552946    1.192813    0.121593
C       0.403862    0.005550    0.182954
N       1.047340   -0.202023   -1.121640
C       1.403341   -1.582462   -1.423374
C       2.569554   -2.070611   -0.562975
C       2.288820   -2.027258    0.936537
O       2.378599   -0.715905    1.510734
C       1.487199    0.268044    1.244784
O       1.585853    1.307062    1.839157
H      -0.020619    2.090283   -0.202329
H      -1.366796    0.982255   -0.580328
H      -0.982126    1.397077    1.103504
H      -0.167895   -0.891354    0.489359
H       0.434971    0.157870   -1.843524
H       0.549277   -2.275007   -1.283047
H       1.686639   -1.634721   -2.479717
H       2.796207   -3.109303   -0.832486
H       3.463661   -1.472186   -0.767905
H       1.314733   -2.476645    1.170206
H       3.049595   -2.594765    1.477314
