18

C       0.034383    1.379665    0.027504
O       0.010367   -0.027623    0.044814
C      -1.295495   -0.554305   -0.021182
C      -1.178083   -2.074677   -0.022918
C      -2.550251   -2.770133   -0.031679
N      -3.305277   -2.423152   -1.239304
C      -2.383456   -4.230575    0.144276
N      -2.277214   -5.378076    0.239765
H       1.081117    1.689321    0.074460
H      -0.416536    1.785440   -0.891924
H      -0.502015    1.808468    0.889015
H      -1.892698   -0.219883    0.846417
H      -1.817607   -0.206180   -0.924272
H      -0.599250   -2.395299   -0.896664
H      -0.617381   -2.392195    0.861358
H      -3.129031   -2.410052    0.828314
H      -2.835333   -2.804386   -2.056360
H      -4.226256   -2.850362   -1.211874
