15

O       0.113646   -0.042083    0.240358
C      -0.010274    1.116811   -0.049209
O      -1.179818    1.583203   -0.534328
C      -1.368356    2.994091   -0.768151
C      -0.133805    3.723456   -1.274015
C       0.919649    4.139794   -0.285824
O       0.849193    3.276145    0.852783
C       1.129363    2.122624    0.002972
C       1.207307    3.014659   -1.238527
H      -2.171947    3.040446   -1.505682
H      -1.723074    3.443466    0.164569
H      -0.275420    4.383004   -2.124101
H       1.326817    5.134038   -0.153832
H       2.047190    1.622123    0.311585
H       1.878813    2.911218   -2.078077
