12

O       0.118258   -0.124161    0.315112
C       0.100959    0.916580   -0.277790
C       1.180857    1.983985   -0.089091
N       1.220604    2.942428   -1.168084
N       1.607619    2.624616   -2.422013
N       1.554170    3.640796   -3.147772
O       1.106048    4.733581   -2.368073
C       0.891114    4.287720   -1.092030
O       0.510931    4.924631   -0.153756
H      -0.705888    1.191655   -0.991709
H       0.949118    2.561032    0.813696
H       2.152679    1.502967    0.046032
