15

C       0.097438    1.508826    0.032368
C      -0.071680    0.035410    0.041345
C      -1.116081   -0.820116   -0.045203
O      -2.481128   -0.834501   -0.147283
C      -2.792756   -2.215965   -0.392092
O      -1.663122   -3.026775   -0.017672
C      -0.626884   -2.140141    0.035047
C       0.714800   -2.076170    0.169976
O       1.065402   -0.740410    0.175985
H       0.753701    1.833783   -0.782990
H      -0.875561    1.987674   -0.100335
H       0.532437    1.872582    0.970411
H      -3.654471   -2.502416    0.215075
H      -2.995429   -2.357359   -1.463364
H       1.517961   -2.782743    0.271682
