17

C       0.707184    0.984869    0.275334
C       0.304634   -0.412749    0.223484
C      -0.047768   -1.563617    0.188019
C      -0.443917   -2.979028    0.143622
C      -1.815287   -3.102888   -0.394137
N      -2.890114   -3.195334   -0.805205
N       0.425542   -3.901807   -0.607528
C       1.078774   -3.409523   -1.817804
C       1.866183   -3.658967   -0.578097
H       1.797603    1.083091    0.253944
H       0.302324    1.544109   -0.574471
H       0.347117    1.461215    1.193284
H      -0.472486   -3.364746    1.172257
H       1.099473   -4.114277   -2.642766
H       0.925138   -2.369594   -2.094441
H       2.227621   -2.781585   -0.047576
H       2.475453   -4.551517   -0.474447
