21

O       0.206366    1.314438    0.097461
C       0.060381   -0.073390    0.080949
C      -1.408692   -0.477272    0.002773
O      -2.248851    0.394264   -0.088353
C      -1.745923   -1.951959    0.051325
C      -3.210813   -2.267851   -0.267191
C      -3.526624   -3.742666   -0.144024
C      -3.860032   -4.340004    1.202070
C      -4.931671   -4.200130    0.147884
H      -0.696849    1.659237    0.004266
H       0.580589   -0.524859   -0.781654
H       0.503643   -0.532789    0.979633
H      -1.065965   -2.488087   -0.624713
H      -1.488301   -2.313196    1.057615
H      -3.853221   -1.690947    0.406834
H      -3.444074   -1.912979   -1.278199
H      -2.953025   -4.382316   -0.811520
H      -3.493592   -5.333164    1.436969
H      -3.903992   -3.671026    2.056032
H      -5.689699   -3.437961    0.296140
H      -5.295553   -5.097866   -0.339332
