19

C      -0.224360    1.472157    0.256791
C       0.015545   -0.002420    0.020346
C       0.544544   -0.595579   -1.258726
C       1.065071    0.276898   -2.397140
O       2.480953    0.383044   -2.407671
C       2.985821    0.975005   -1.230012
C       2.644611    0.183871    0.038844
O       3.381301    0.205748    0.999410
C       1.402912   -0.643830   -0.003521
H       0.504955    2.113807   -0.242078
H      -1.217493    1.761559   -0.104200
H      -0.178660    1.698361    1.326798
H      -0.713465   -0.630923    0.525609
H       0.107210   -1.538812   -1.569505
H       0.798221   -0.172402   -3.356500
H       0.617260    1.282806   -2.369158
H       4.074147    1.010850   -1.317928
H       2.626576    2.014138   -1.116168
H       1.501377   -1.577424    0.539799
