17

C       0.182050    1.339156    0.011074
O       0.107386   -0.071356    0.028270
C       0.565304   -0.669937   -1.158819
C       0.407189   -2.185748   -0.989273
N       1.111590   -2.648319    0.190786
C       2.080510   -3.605097    0.121830
O       2.421810   -4.169664   -0.893926
C      -1.020164   -2.556382   -0.938901
N      -2.138908   -2.841512   -0.909201
H       1.217795    1.687591   -0.118220
H      -0.432834    1.763865   -0.795581
H      -0.196868    1.693830    0.971504
H      -0.011681   -0.327287   -2.031339
H       1.628923   -0.444657   -1.335278
H       0.867709   -2.699993   -1.839323
H       0.913096   -2.178899    1.060566
H       2.527617   -3.807959    1.112809
