16

O       0.008912   -0.082943   -0.042548
C      -0.019418    1.125963   -0.034801
C      -1.316059    1.926371   -0.021529
C      -1.290911    3.077721   -1.047029
C       0.009240    3.886151   -0.924489
N       1.219465    3.069077   -1.029836
C       1.250026    1.981116   -0.044259
H      -2.154368    1.242920   -0.177637
H      -1.418248    2.352081    0.987873
H      -1.359426    2.662862   -2.061351
H      -2.165772    3.724846   -0.911749
H       0.050665    4.664893   -1.693122
H       0.036744    4.398343    0.047740
H       1.274492    2.670266   -1.962910
H       1.371758    2.428146    0.953990
H       2.111546    1.333675   -0.224610
