21

C       0.102506    1.520967    0.007712
C      -0.047060    0.005568    0.177328
C      -1.483776   -0.525697    0.050966
C      -2.451275    0.100657    1.049751
C      -1.969119   -0.565318   -1.446058
C      -1.442651   -2.000648   -1.478775
O      -0.879557   -2.674526   -2.298255
C      -1.485025   -2.115337    0.039451
O      -0.488241   -2.857069    0.673263
H       1.158333    1.806506    0.037175
H      -0.304749    1.864126   -0.949638
H      -0.408085    2.072859    0.802351
H       0.585135   -0.498791   -0.565539
H       0.345598   -0.301546    1.153181
H      -2.575261    1.173921    0.875798
H      -3.441781   -0.361071    0.976299
H      -2.094172   -0.033436    2.077114
H      -3.058666   -0.516760   -1.536113
H      -1.518185    0.126869   -2.159659
H      -2.473184   -2.460113    0.376761
H       0.105800   -3.179992   -0.016080
