22

O       0.357759    0.963647   -0.701025
C       0.050025   -0.163013    0.089670
C      -0.215443    0.022621    1.607415
C      -1.432630   -0.931648    1.456742
C      -1.397498   -0.697452   -0.085527
C      -2.382954    0.341388   -0.618259
N      -3.714154   -0.240869   -0.774422
C      -4.670756   -0.023829    0.306305
C      -4.807795    0.697908   -0.987987
H       1.256201    1.241361   -0.497269
H       0.776897   -0.970738   -0.080647
H       0.577483   -0.257214    2.305962
H      -0.525397    1.050715    1.815197
H      -1.187630   -1.963386    1.721304
H      -2.348709   -0.653211    1.980374
H      -1.491724   -1.595135   -0.701689
H      -2.397529    1.237873    0.027446
H      -2.044432    0.672763   -1.605317
H      -5.317815   -0.862779    0.547019
H      -4.349487    0.564662    1.164761
H      -4.576364    1.762430   -0.987890
H      -5.556186    0.396285   -1.715717
