20

C      -0.186329    1.390864   -0.340131
C      -0.097709    0.037829    0.286000
C      -1.128474   -0.828602    0.438689
C      -1.702720   -1.316396   -0.910035
C      -0.615807   -2.446610   -0.735355
N       0.697708   -2.181709    0.015477
C       1.183086   -0.794202    0.225755
C      -0.563792   -2.246938    0.729595
C      -0.839308   -3.142278    1.896563
H       0.406252    1.453086   -1.262972
H      -1.222764    1.660830   -0.561511
H       0.214095    2.161104    0.332647
H      -2.691663   -1.789272   -0.892180
H      -1.642611   -0.621899   -1.752792
H      -0.609744   -3.384278   -1.283273
H       1.792073   -0.440045   -0.615236
H       1.831789   -0.807245    1.111959
H      -0.429859   -2.722410    2.822460
H      -1.916506   -3.275546    2.042704
H      -0.384410   -4.123962    1.737400
