23

C       0.957513    1.505670    0.252253
C       0.131325    0.250687   -0.061284
C       0.575558   -0.478751   -1.322008
C       1.782769   -1.387928   -1.277317
C       0.406408   -1.982770   -1.458014
C      -0.231168   -2.863500   -0.406010
C       0.346983    0.314538   -2.580371
C       1.401326    1.074609   -3.267920
O       0.936101   -0.175436   -3.785366
H       2.016573    1.256354    0.376422
H       0.883400    2.248174   -0.548107
H       0.612457    1.978654    1.176940
H       0.182956   -0.430831    0.792804
H      -0.927424    0.528887   -0.160334
H       2.452714   -1.396145   -2.129802
H       2.266897   -1.518539   -0.313846
H       0.196921   -2.298929   -2.476860
H       0.065012   -2.583644    0.608861
H      -1.325317   -2.825545   -0.456835
H       0.069481   -3.906922   -0.552640
H      -0.680622    0.665105   -2.708958
H       1.144354    1.948983   -3.864275
H       2.413174    1.061310   -2.866735
