14

C      -0.079708    1.419087    0.039457
N      -0.039227   -0.020274   -0.124617
C       0.777419   -0.626459   -1.024371
O       1.545599   -0.059642   -1.774376
C       0.653611   -2.128317   -1.023031
N      -0.166007   -2.765949   -0.226156
O       0.032668   -4.104551   -0.545809
C       0.961359   -4.114154   -1.510764
N       1.388028   -2.943889   -1.854578
H       0.632688    1.850842   -0.664090
H      -1.078922    1.813516   -0.174672
H       0.201377    1.709038    1.057671
H      -0.632885   -0.605781    0.442574
H       1.254836   -5.078946   -1.897182
