17

O       0.466334    0.184874    1.027865
C      -0.045406    0.129982   -0.292606
C      -1.478767   -0.453053   -0.392555
O      -1.970375   -0.216263   -1.681531
C      -1.503472   -1.959556   -0.102876
O      -1.759680   -2.720510   -1.007837
C      -1.204129   -2.409864    1.322514
C      -1.105150   -3.848309    1.497674
C      -1.015605   -5.035234    1.652561
H       0.011710    0.890750    1.498886
H      -0.073906    1.119032   -0.766383
H       0.643673   -0.493253   -0.871151
H      -2.107006    0.058752    0.356709
H      -2.089618   -1.098396   -2.072533
H      -0.293215   -1.890492    1.648456
H      -2.001336   -1.996247    1.958164
H      -0.937494   -6.086107    1.782977
