16

C       0.043969    1.596455    0.020979
C       0.086358    0.086415    0.025559
C       1.328048   -0.753828   -0.279473
C       2.506147   -0.148284    0.405327
N       3.675425    0.142110    0.066068
O       1.876921   -0.040053    1.647020
C       0.702186   -0.734241    1.120663
C       0.092543   -1.737506    1.912565
C      -0.442966   -2.579221    2.584180
H       0.920581    2.022261    0.512453
H       0.006097    1.974298   -1.005289
H      -0.846832    1.953140    0.547498
H      -0.802472   -0.396337   -0.376459
H       1.349907   -1.535595   -1.024373
H       4.208054    0.518484    0.852086
H      -0.908876   -3.325821    3.179096
