21

C      -0.007215    1.535919    0.017306
C      -0.038168   -0.006646    0.002953
C       0.674467   -0.542294   -1.266008
C       0.677053   -2.074459   -1.331498
C       1.057892   -2.691631   -0.013022
C       1.070200   -2.014899    1.133811
C       0.697286   -0.560895    1.254156
C      -1.436419   -0.451985    0.011088
C      -2.589446   -0.794203    0.009640
H       1.026998    1.893187   -0.030960
H      -0.554632    1.944377   -0.836842
H      -0.464788    1.927155    0.930850
H       0.202613   -0.120831   -2.159548
H       1.708268   -0.175161   -1.241555
H      -0.315745   -2.437252   -1.632126
H       1.367103   -2.409514   -2.115968
H       1.322546   -3.746332   -0.018599
H       1.363448   -2.515231    2.053771
H       1.602715    0.041056    1.421622
H       0.069459   -0.405599    2.139495
H      -3.605519   -1.102561    0.014751
