19

C       0.167353    1.498150    0.109736
C      -0.006390    0.011095   -0.026352
C      -0.088731   -0.626127   -1.197910
C      -0.230151   -2.122015   -1.307743
C      -0.991052   -2.760939   -0.130031
O      -0.859985   -4.177102   -0.130556
C      -0.579487   -2.165624    1.197842
O       0.816844   -1.907254    1.374381
C      -0.084312   -0.782042    1.236539
H       1.097924    1.741622    0.638070
H       0.192132    1.988351   -0.866675
H      -0.648407    1.945126    0.692455
H      -0.008326   -0.061328   -2.123463
H      -0.726630   -2.401704   -2.241708
H       0.770194   -2.576289   -1.344801
H      -2.066408   -2.578090   -0.250258
H       0.066363   -4.375503    0.049672
H      -1.080528   -2.582746    2.071783
H      -0.202306   -0.215538    2.159365
