17

C      -0.276271    1.444313    0.250664
N       0.010863    0.018785    0.154422
C       1.343842   -0.415862   -0.206182
C       0.818248   -0.637808    1.185177
C       1.451899    0.126780    2.354998
C       0.497697    0.461771    3.406104
C      -0.299118    0.732657    4.263003
C       0.347352   -1.963711    1.545002
N       0.007713   -3.028487    1.839322
H       0.588111    2.066970    0.525451
H      -0.636916    1.780398   -0.725617
H      -1.067620    1.601730    0.987120
H       1.410964   -1.244522   -0.905015
H       2.129877    0.334288   -0.299330
H       2.258276   -0.491290    2.767950
H       1.928500    1.036333    1.976806
H      -1.000209    0.964668    5.026410
