23

C      -0.049978    1.549056    0.090126
C       0.034383    0.018350   -0.005957
C       0.566539   -0.420027   -1.388826
C       0.110153   -1.814093   -1.848748
C       0.663633   -3.007958   -1.060843
C       0.363253   -2.986999    0.455974
C       1.262837   -1.990227    1.170858
O       2.276238   -2.357003    1.723095
C       0.878884   -0.513554    1.167076
H       0.935183    2.004889   -0.063763
H      -0.727527    1.955224   -0.667653
H      -0.412230    1.868771    1.072971
H      -0.987985   -0.372370    0.094640
H       0.222499    0.305197   -2.135935
H       1.664301   -0.359683   -1.395569
H      -0.988088   -1.846507   -1.818284
H       0.385738   -1.943389   -2.902403
H       0.241765   -3.927877   -1.480724
H       1.750002   -3.078884   -1.198934
H      -0.695455   -2.751999    0.620956
H       0.573684   -3.969476    0.885766
H       1.815503    0.049071    1.253344
H       0.337662   -0.337387    2.108480
