18

C      -0.098889    1.614368    0.140615
C      -0.033432    0.121363    0.055750
C      -0.000212   -0.644700   -1.067643
C       0.025954   -0.380496   -2.526992
O       1.313545   -0.538443   -3.129849
O       0.068819   -1.987417   -0.708130
C       0.077492   -2.038357    0.641509
N       0.066789   -3.312861    1.188655
C       0.013107   -0.786220    1.174422
H       0.765720    2.018104    0.679952
H      -0.114692    2.075697   -0.849875
H      -0.994892    1.944209    0.679192
H      -0.712241   -1.021785   -3.033726
H      -0.263370    0.657624   -2.709069
H       1.615969   -1.425987   -2.911645
H       0.543744   -3.991641    0.609150
H       0.418511   -3.337357    2.135520
H      -0.003036   -0.530720    2.222325
