25

C      -0.035275    1.606118   -0.028555
C       0.037117    0.075789    0.039962
C       0.756222   -0.561146   -1.175830
C       1.530646   -1.801507   -0.640810
C       0.726013   -3.102319   -0.850237
C       2.913957   -1.946934   -1.295797
C       1.621092   -1.477353    0.838005
C       0.821728   -0.480696    1.220850
C       0.622387    0.025650    2.616223
H       0.969191    2.043668   -0.059536
H      -0.568558    1.929237   -0.928921
H      -0.560455    2.027344    0.834907
H      -0.996988   -0.298829    0.106705
H       0.068849   -0.815483   -1.988992
H       1.473667    0.164099   -1.578037
H       0.642705   -3.343707   -1.916425
H       1.210931   -3.949988   -0.353216
H      -0.285369   -3.011738   -0.441313
H       3.523368   -1.052361   -1.131700
H       3.458372   -2.804972   -0.884914
H       2.822056   -2.101047   -2.377215
H       2.246900   -2.058552    1.510565
H       1.230808   -0.529998    3.334999
H       0.881414    1.087983    2.703579
H      -0.428633   -0.062295    2.922627
