20

C      -0.084851    1.429699   -0.177111
N       0.028345   -0.004785    0.022705
C      -1.219580   -0.687983    0.317957
C      -1.115705   -2.171411    0.526585
C      -2.412555   -2.867946    0.831562
C       0.054817   -2.797339    0.441306
C       1.340528   -2.097784    0.137663
C       1.261212   -0.592756   -0.078145
O       2.273058    0.041553   -0.330028
H       0.907808    1.822230   -0.389644
H      -0.756633    1.651802   -1.016207
H      -0.488774    1.914910    0.720732
H      -1.673536   -0.228247    1.213018
H      -1.936400   -0.487195   -0.497167
H      -3.141507   -2.728636    0.022845
H      -2.261439   -3.941047    0.970449
H      -2.876650   -2.468759    1.742646
H       0.103385   -3.873060    0.596699
H       2.076363   -2.257206    0.937038
H       1.815414   -2.514403   -0.760540
