19

O      -0.207945    0.014600   -0.132305
C      -0.000494    1.197515   -0.044974
C       1.353116    1.853149   -0.206954
C       1.359574    2.883648   -1.338774
C       0.531612    4.199694   -1.167792
C       1.728401    4.947725   -1.757545
C       1.752591    5.925542   -2.845929
O       2.061446    6.292840   -1.491236
C       2.646808    3.745975   -1.527041
H      -0.835552    1.908113    0.159013
H       1.598425    2.360370    0.737676
H       2.098123    1.070217   -0.379324
H       1.096065    2.393967   -2.281360
H      -0.427940    4.275905   -1.684054
H       0.389762    4.460525   -0.113360
H       2.594228    5.948591   -3.537338
H       0.818299    6.328414   -3.235393
H       3.205727    3.851210   -0.591250
H       3.337831    3.463865   -2.324493
