17

O      -0.000046    1.467215   -0.080288
C       1.328983    1.892826    0.061943
C       2.423873    1.146123   -0.674173
C       2.045252   -0.119417   -1.422760
C       0.618081   -0.618680   -1.272314
C       1.744806   -1.242860   -0.461608
C       1.331556   -0.404072    0.782561
C       2.163818    0.878864    0.806421
C       0.049824    0.054520   -0.031692
H       1.401894    2.962682    0.219195
H       3.294525    1.703566   -0.999947
H       2.533035   -0.340565   -2.364208
H       0.051300   -1.013967   -2.106597
H       2.160368   -2.240916   -0.496494
H       1.174580   -0.898884    1.738147
H       2.848008    1.127585    1.607682
H      -0.912769   -0.327616    0.309995
