20

C       0.003945    1.457192    0.036529
C       0.010507    0.000749    0.017252
C       0.012367   -1.203793   -0.003900
C       0.018866   -2.670943   -0.023481
C      -1.426229   -3.206144    0.095733
C       0.662653   -3.177809   -1.334046
C       0.853204   -3.150555    1.185967
O       0.873342   -4.570319    1.187251
H       0.578588    1.847423    0.884037
H       0.443670    1.870670   -0.878018
H      -1.015226    1.850884    0.120280
H      -2.024789   -2.885883   -0.761353
H      -1.416610   -4.297828    0.135324
H      -1.905825   -2.829285    1.004044
H       1.675817   -2.780701   -1.447484
H       0.716241   -4.268896   -1.324550
H       0.074396   -2.857407   -2.198184
H       1.869229   -2.736281    1.104787
H       0.402324   -2.756179    2.108840
H       1.393040   -4.863099    1.940717
