21

C      -0.264823    1.613409   -0.069532
C       0.015751    0.116564   -0.017935
C       1.113031   -0.575657   -0.890302
C       2.402767    0.165810   -0.494408
C       2.360899   -0.286426    0.983544
O       3.129137    0.378729    1.934096
C       2.552007   -1.809003    0.836218
C       1.153969   -1.738498    0.201924
C       0.780649   -0.549086    1.137183
H       0.617007    2.222287    0.149563
H      -0.637775    1.913224   -1.055703
H      -1.031263    1.880936    0.666387
H      -0.928104   -0.425886   -0.157763
H       0.945472   -0.783714   -1.947490
H       3.299592   -0.195806   -1.005412
H       2.342829    1.248832   -0.636099
H       2.987939    1.325864    1.832954
H       3.411283   -2.163927    0.258344
H       2.510506   -2.320470    1.802190
H       0.508875   -2.601961    0.052917
H       0.403029   -0.676525    2.152025
