13

N       0.684809    0.251676   -0.854959
C      -0.036544    0.119520    0.273199
O       0.231547    0.598588    1.349377
C      -1.340634   -0.799292    0.159284
N      -2.243591   -0.581435    1.281013
C      -2.026830   -0.541269   -1.116316
N      -2.523411   -0.291514   -2.128823
C      -0.857764   -2.199545    0.168592
N      -0.436920   -3.274594    0.185997
H       1.535266    0.791651   -0.823923
H       0.381917   -0.126536   -1.737053
H      -1.654524   -0.345960    2.080161
H      -2.814749    0.237598    1.092951
