16

N      -0.035874    1.309609    0.025373
C      -0.045891    0.040424   -0.076956
N      -1.215884   -0.685478   -0.030990
C      -2.499826   -0.170652    0.115981
N      -3.457556   -1.008416    0.142081
C      -2.873670   -2.344346   -0.024386
C      -1.309188   -2.156863   -0.063179
C      -0.660165   -2.751660   -1.224256
C      -0.127891   -3.257957   -2.175344
H       0.916156    1.661260   -0.040371
H       0.829760   -0.601994   -0.217430
H      -2.605511    0.903850    0.195673
H      -3.172179   -2.995888    0.801289
H      -3.237536   -2.795875   -0.952141
H      -0.855848   -2.571453    0.846357
H       0.338064   -3.703009   -3.019968
