18

C      -0.056933    1.562982    0.001322
C       0.000286    0.040654   -0.067736
N      -1.321925   -0.528146    0.140480
C      -1.559251   -1.884124    0.061803
C      -0.551031   -2.860216    0.086009
N      -0.817119   -4.166414    0.054170
C      -2.097725   -4.519630   -0.011464
N      -3.143489   -3.687658   -0.054316
C      -2.868347   -2.391445   -0.018018
H       0.940156    1.988927   -0.135571
H      -0.702934    1.969377   -0.785364
H      -0.444732    1.895085    0.968907
H       0.428783   -0.277460   -1.032574
H       0.672878   -0.335666    0.713083
H      -2.085188    0.053462   -0.173125
H       0.497677   -2.580706    0.133682
H      -2.316401   -5.583263   -0.037072
H      -3.714604   -1.704253   -0.052547
