23

C      -0.089487    1.583922    0.045601
C       0.005100    0.051001   -0.000827
C       0.742956   -0.464265   -1.256565
C       2.254075   -0.200370   -1.167371
C       2.800387   -0.717146    0.164686
O       2.086388   -0.170630    1.269181
C       0.718251   -0.495865    1.228513
C       0.055575   -0.535032    2.565873
C       0.324180   -1.830146    1.818894
H       0.898766    2.039906    0.148666
H      -0.555042    1.975799   -0.864738
H      -0.690802    1.910543    0.899691
H      -1.013997   -0.355288   -0.009337
H       0.576684   -1.545902   -1.342374
H       0.323319   -0.006444   -2.159356
H       2.780665   -0.689412   -1.995089
H       2.460765    0.872824   -1.247044
H       2.743335   -1.817904    0.192731
H       3.845523   -0.428695    0.309716
H       0.679730   -0.319165    3.425305
H      -0.968087   -0.184101    2.643401
H      -0.516907   -2.366416    1.391913
H       1.122197   -2.459146    2.197141
