25

C      -1.617741   -0.360294   -0.266624
C      -0.118428   -0.117595   -0.064436
C       0.787161   -0.601160   -1.216812
C       2.262489   -0.219837   -0.982047
C       2.555929    1.276512   -0.991296
O       3.967343    1.434530   -0.925295
C       0.673666   -2.102909   -1.435103
C      -0.349620   -2.697315   -2.371062
C       1.112923   -2.723619   -2.737445
H      -1.976796    0.119306   -1.184502
H      -1.850927   -1.425752   -0.337493
H      -2.192900    0.053706    0.567875
H       0.042044    0.955505    0.091271
H       0.208905   -0.606746    0.863890
H       0.452667   -0.106662   -2.142828
H       2.608867   -0.640980   -0.029148
H       2.879756   -0.676771   -1.763343
H       2.148771    1.727168   -1.912553
H       2.069059    1.778204   -0.141711
H       4.161449    2.375072   -0.877993
H       0.890636   -2.689514   -0.543894
H      -0.830843   -3.628708   -2.092291
H      -0.992434   -2.014969   -2.917219
H       1.446149   -2.057834   -3.527729
H       1.636999   -3.672575   -2.711122
