19

C      -0.077257    1.524014   -0.035928
C       0.060785    0.008156   -0.064816
C      -1.149821   -0.699934    0.534437
C       0.703937   -0.733159   -1.205043
C       1.898188    0.019836   -1.790028
C       2.567506   -0.144189   -0.402331
O       3.722662   -0.232042   -0.065449
C       1.359446   -0.685928    0.268879
O       1.434681   -1.568119    1.310839
H       0.804928    2.042439   -0.416542
H      -0.940044    1.840894   -0.633182
H      -0.241180    1.865717    0.991448
H      -2.056544   -0.404425   -0.003559
H      -1.053573   -1.786502    0.484400
H      -1.275538   -0.426259    1.586421
H       0.238434   -1.595862   -1.664266
H       2.459258   -0.540620   -2.542380
H       1.721271    1.032993   -2.158003
H       2.331975   -1.928529    1.306948
