17

C      -0.040919    1.513674    0.041633
C      -0.023836    0.020788   -0.051022
C      -0.869981   -0.943302    0.781716
O      -1.033225   -2.169092    0.066510
C       0.398453   -2.095654   -0.231249
C       1.078369   -3.395800   -0.497256
C       0.595539   -1.048990    0.935924
C       0.489247   -0.850893   -1.154528
O       1.027656   -0.635396   -2.205187
H       0.906722    1.936881   -0.305927
H      -0.840907    1.930267   -0.579133
H      -0.208615    1.849448    1.069987
H      -1.653069   -0.610511    1.451607
H       0.600055   -3.888770   -1.349251
H       2.129078   -3.226320   -0.749386
H       1.017678   -4.060693    0.368207
H       1.324106   -0.906063    1.720479
