16

C      -0.035208    1.542376   -0.062519
C       0.049267    0.026493   -0.000061
O       0.722419   -0.437477   -1.159506
C       0.832049   -1.839943   -1.214959
C       1.544221   -2.429216   -0.003958
O       2.101538   -3.499582   -0.003519
N       1.477170   -1.628346    1.130626
C       0.758663   -0.445358    1.275161
O       0.693537    0.127242    2.336508
H       0.966036    1.971081   -0.155198
H      -0.628786    1.845869   -0.927357
H      -0.494534    1.923576    0.850487
H      -0.968782   -0.404343    0.035841
H      -0.157152   -2.323737   -1.294764
H       1.406763   -2.096974   -2.106271
H       1.939487   -1.978897    1.962333
