22

C      -0.544280    1.634196    0.025001
O      -0.356138    0.280533    0.380045
C      -1.431627   -0.552797    0.041024
C      -1.511284   -1.202007   -1.388739
C      -0.178556   -1.240403   -2.130194
C      -1.886149   -2.551557   -0.693298
C      -1.370259   -1.961101    0.621142
C      -0.295711   -2.460099    1.504205
N      -1.698399   -2.401682    1.969538
H       0.332834    2.185629    0.372108
H      -0.638242    1.768892   -1.062053
H      -1.442477    2.055264    0.502819
H      -2.385843   -0.061099    0.294926
H      -2.291844   -0.786203   -2.031536
H       0.619307   -1.634117   -1.493668
H      -0.253117   -1.880005   -3.016014
H       0.127800   -0.243172   -2.461560
H      -2.963302   -2.738571   -0.669718
H      -1.379342   -3.445391   -1.065781
H       0.095969   -3.464741    1.366427
H       0.414007   -1.732338    1.886289
H      -1.824782   -1.593930    2.576562
