18

O      -0.016421    1.385894   -0.056738
C      -0.002742   -0.011921   -0.016482
C      -0.452142   -0.728388    1.231188
C      -1.342256   -0.693436   -0.007019
C      -2.608035    0.141616   -0.016859
C      -3.791610   -0.796475    0.189592
O      -3.777894   -1.863511   -0.773491
C      -2.553985   -2.353434   -1.081264
N      -1.409831   -1.916327   -0.756546
H       0.703604    1.705932    0.496667
H       0.764713   -0.494141   -0.619737
H       0.019804   -1.670270    1.484034
H      -0.761870   -0.114374    2.071027
H      -2.594866    0.915606    0.753302
H      -2.709789    0.647539   -0.983954
H      -3.764024   -1.239780    1.193385
H      -4.751892   -0.292859    0.058698
H      -2.653327   -3.244891   -1.697018
