20

C      -0.104470    1.325074   -0.319220
O      -0.074092    0.055022    0.292454
C      -1.290285   -0.610029    0.229552
C      -1.658687   -1.473396   -1.025570
N      -0.540310   -2.409426   -0.613954
C      -1.277486   -2.088777    0.677254
C      -2.615103   -2.278742   -0.078049
O      -3.767950   -1.718256    0.474861
C      -4.889559   -1.789578   -0.381975
H       0.870292    1.788457   -0.151212
H      -0.280801    1.255316   -1.402973
H      -0.884933    1.968865    0.116836
H      -2.111035   -0.002316    0.625009
H      -1.802733   -1.170625   -2.063554
H      -0.777199   -3.365309   -0.905013
H      -0.972787   -2.500697    1.639518
H      -2.792668   -3.310198   -0.419962
H      -5.740310   -1.373370    0.161877
H      -4.738442   -1.211186   -1.304969
H      -5.118697   -2.829878   -0.659259
