18

C      -0.503829    1.265740    0.016795
C       0.088758   -0.113443    0.071030
O      -0.467226   -1.026649    1.023624
C       0.918624   -0.664438    1.151675
C       1.865060   -1.716042    0.611168
C       1.240904   -2.107184   -0.746859
C       0.506644   -0.823064   -1.229198
C      -0.607099   -1.088717   -2.136064
N      -1.492375   -1.287993   -2.852015
H       0.174598    1.963489   -0.485526
H      -1.448116    1.255223   -0.537246
H      -0.702223    1.633330    1.026038
H       1.168457   -0.087158    2.038584
H       2.860401   -1.272231    0.486597
H       1.969251   -2.576041    1.279030
H       1.975773   -2.452563   -1.475898
H       0.507063   -2.901247   -0.605364
H       1.209732   -0.162135   -1.753113
