17

N      -0.044453    1.415887    0.131811
C       0.019591    0.024272    0.043587
C      -1.147406   -0.755606    0.022898
N      -1.155673   -2.083141   -0.001324
C       0.015615   -2.729334   -0.006588
C      -0.074834   -4.237041   -0.029598
O       1.228078   -4.792719   -0.086971
C       1.233311   -2.053181    0.009154
C       1.235125   -0.664864    0.033637
H       0.757188    1.899997   -0.246419
H      -0.906200    1.818137   -0.208915
H      -2.119876   -0.263366    0.027070
H      -0.617153   -4.571113    0.869291
H      -0.683651   -4.539100   -0.896240
H       1.144888   -5.749555   -0.069277
H       2.158109   -2.614848   -0.000532
H       2.172099   -0.114887    0.048212
