22

C      -0.032870    1.556183    0.037814
C       0.122824    0.040412    0.014233
C       0.840038   -0.538836   -1.234490
O       1.819084    0.391759   -1.694685
C       1.454466   -1.850658   -0.701279
C       1.641099   -1.624625    0.798095
C       1.690908   -2.834688    1.698258
C       2.278278   -0.338522    1.192220
N       0.806800   -0.480411    1.217298
H       0.938302    2.053885    0.003986
H      -0.613990    1.898285   -0.823935
H      -0.552419    1.860902    0.950190
H      -0.876716   -0.413890    0.035894
H       0.116163   -0.732538   -2.038286
H       2.269978   -0.002872   -2.447457
H       0.756973   -2.682941   -0.857914
H       2.384345   -2.105942   -1.221782
H       2.575957   -3.445558    1.485398
H       1.728137   -2.533650    2.748375
H       0.806141   -3.466669    1.558183
H       2.728620   -0.252375    2.177935
H       2.731490    0.273156    0.419830
