17

C      -0.019643    1.582823    0.188912
C       0.067862    0.090868   -0.062827
O       1.127141   -0.468675   -0.250934
C      -1.237369   -0.680555   -0.070026
C      -1.431609   -1.725150   -1.204752
C      -0.548123   -2.793872   -0.487589
O      -1.559231   -3.846687   -0.569795
C      -2.312986   -2.635370   -0.297129
C      -1.256265   -2.040675    0.682088
H       0.975478    2.028190    0.169266
H      -0.654713    2.056825   -0.568904
H      -0.494015    1.774463    1.158737
H      -2.099936   -0.033953    0.118033
H      -1.531859   -1.562281   -2.277388
H       0.496116   -3.051843   -0.627664
H      -3.397352   -2.690837   -0.205693
H      -1.157589   -2.235766    1.749471
