14

O       0.091553    1.365791    0.068059
C       0.073302    0.023500    0.067759
N       0.076513   -0.653657   -1.068538
O       0.053885   -2.022412   -0.702899
C       0.038800   -2.065075    0.628254
C       0.049444   -0.825829    1.194989
C       0.030948   -0.982211    2.683923
C       0.008650   -2.499622    2.826538
C       0.013546   -3.119222    1.625937
H       0.105575    1.655399   -0.854571
H       0.909560   -0.551585    3.181194
H      -0.846310   -0.527617    3.161871
H      -0.008693   -2.992303    3.790101
H       0.001190   -4.182607    1.435511
