17

C      -0.078705    1.547194    0.070028
C       0.040408    0.017899    0.016017
C       0.810224   -0.516067   -1.209331
C       1.961493   -1.368510   -0.653983
O       2.778999   -1.974445   -1.307638
C       1.873700   -1.304284    0.818268
C       0.822628   -0.551792    1.201324
C       0.426902   -0.286329    2.531280
C       0.052842   -0.039660    3.650430
H       0.910581    2.015729    0.032877
H      -0.661239    1.914731   -0.779959
H      -0.573237    1.871471    0.990030
H      -0.972497   -0.402533    0.049420
H       0.192696   -1.127055   -1.873701
H       1.228273    0.291167   -1.819574
H       2.570782   -1.810889    1.472444
H      -0.262418    0.167451    4.643583
