19

O       0.141636    1.362825    0.113299
C       0.105237   -0.048611    0.060058
C       0.123341   -0.628302    1.495196
C      -1.419580   -0.443045    1.520707
C      -1.341775   -0.634876   -0.023625
C      -1.237192   -2.129085   -0.341022
O      -0.628936   -2.241635   -1.622905
C      -0.443245   -2.828556    0.788957
O       0.513458   -1.994690    1.431759
H      -0.076672    1.697029   -0.762679
H       0.846969   -0.460110   -0.630755
H       0.747602   -0.144522    2.248131
H      -2.025783   -1.128370    2.117173
H      -1.667736    0.587298    1.773469
H      -2.062051   -0.130057   -0.672175
H      -2.245013   -2.575243   -0.363735
H      -0.581423   -3.174291   -1.854096
H      -1.156414   -3.217238    1.531198
H       0.108435   -3.685945    0.387870
