19

C       0.559128    1.413318    0.150632
C       0.106300    0.002226   -0.075480
C       0.056939   -0.604885   -1.264159
C      -0.410000   -2.035625   -1.387399
C       0.173638   -2.910085   -0.259563
C       0.256495   -2.190103    1.070592
O       0.812243   -2.641998    2.048379
C      -0.362930   -0.791980    1.141086
O      -0.057355   -0.187166    2.364405
H       1.392132    1.446767    0.859557
H       0.870176    1.878396   -0.788339
H      -0.240199    2.017896    0.594926
H       0.338216   -0.069720   -2.166554
H      -1.508880   -2.075386   -1.350507
H      -0.129939   -2.456587   -2.356931
H      -0.403118   -3.830955   -0.115279
H       1.193716   -3.225730   -0.504111
H      -1.459170   -0.933295    1.055334
H       0.413926   -0.871643    2.869074
