16

C      -0.074819    1.487551    0.018748
C       0.057622   -0.023638    0.118844
O       1.128649   -0.579738    0.299557
N      -1.102631   -0.720666   -0.006897
C      -1.130407   -2.156214    0.066461
C      -2.575217   -2.623628   -0.112010
N      -2.746972   -3.969338   -0.063793
O      -3.493212   -1.841629   -0.283464
H       0.553562    1.842126   -0.802596
H      -1.100735    1.826854   -0.143769
H       0.308739    1.936037    0.939036
H      -2.000505   -0.283206   -0.156940
H      -0.494014   -2.607008   -0.707056
H      -0.738622   -2.513611    1.028394
H      -1.981579   -4.605010    0.078230
H      -3.675589   -4.341269   -0.174678
