15

O      -0.094630    1.390723    0.104177
C       0.030329    0.024537    0.038901
C      -1.049054   -1.019733    0.081584
C      -0.188375   -0.863237   -1.171529
C       0.894526   -1.977971   -1.062194
O       0.310651   -2.942625   -0.194558
C      -0.121449   -2.018702    0.795735
C       1.037109   -0.902419    0.759251
O       1.911120   -1.392751   -0.248882
H       0.612661    1.787255   -0.417294
H      -2.127753   -0.943963    0.102324
H      -0.595164   -0.489382   -2.099693
H       1.306368   -2.433058   -1.958142
H      -0.402437   -2.512298    1.721012
H       1.564814   -0.593456    1.656925
