19

C      -0.037532    1.458309   -0.025206
N      -0.052178    0.023406    0.162510
C      -1.359999   -0.629511    0.123889
C      -1.181831   -1.851601    0.990860
C      -2.209519   -2.933384    1.056548
C      -0.034305   -1.765604    1.659633
C       0.684650   -0.477566    1.322750
C       2.117509   -0.663904    1.013281
N       3.243573   -0.799692    0.792717
H       0.995696    1.815444   -0.073746
H      -0.519659    1.709691   -0.974691
H      -0.558052    2.010893    0.779886
H      -2.168302    0.010160    0.531242
H      -1.647804   -0.876375   -0.908313
H      -2.359354   -3.392056    0.071609
H      -1.921447   -3.718403    1.759742
H      -3.182878   -2.534485    1.368035
H       0.360875   -2.477279    2.372398
H       0.644545    0.217659    2.186066
