15

O       0.067852    1.270753    0.354282
C      -0.088620   -0.067283   -0.021506
C      -1.540837   -0.474300   -0.097061
O      -2.171903   -0.355157   -1.382388
C      -1.837315   -1.654686   -0.903678
C      -0.691946   -2.348990   -1.606757
O       0.349544   -1.458584   -2.025666
C       0.603600   -0.316529   -1.367241
O       1.384518    0.483295   -1.811921
H       0.719271    1.637150   -0.264492
H       0.399859   -0.734305    0.715477
H      -2.163541   -0.196996    0.750398
H      -2.677995   -2.301286   -0.653797
H      -0.272853   -3.122004   -0.949272
H      -1.033681   -2.834646   -2.524784
