18

C       0.584949    1.290889    0.116101
C      -0.190613   -0.007549   -0.025827
O       0.255203   -0.732556   -1.182752
C       0.980868   -1.814556   -0.778743
N       1.588126   -2.632747   -1.521909
C       0.924361   -1.845604    0.706629
C       1.036031   -3.105944    1.499337
C       2.159825   -2.093320    1.537873
O      -0.019211   -0.870506    1.081820
H       1.652493    1.085008    0.233866
H       0.439198    1.915220   -0.769722
H       0.229932    1.835679    0.995022
H      -1.263771    0.177035   -0.146869
H       1.492275   -2.381735   -2.505598
H       0.398333   -3.182377    2.372690
H       1.184752   -4.020464    0.936716
H       3.077709   -2.319849    1.007488
H       2.261925   -1.493687    2.435330
