19

C       0.031461    1.490197    0.004504
C       0.035285    0.035904   -0.063357
C       0.038120   -1.166153   -0.127331
C       0.023667   -2.622130   -0.187631
C      -1.353999   -3.235825    0.155913
O      -2.327768   -2.850803   -0.814929
C      -2.919230   -3.999019   -1.415386
C      -2.238007   -5.173471   -0.772000
C      -1.360184   -4.741826    0.125120
H       0.518448    1.851241    0.917407
H       0.560834    1.930387   -0.848046
H      -0.990653    1.885051   -0.003197
H       0.310399   -2.969764   -1.187803
H       0.764261   -3.031877    0.513054
H      -1.659514   -2.847473    1.140685
H      -4.006408   -3.997686   -1.235765
H      -2.774017   -3.970993   -2.506732
H      -2.463925   -6.202111   -1.023082
H      -0.721141   -5.345274    0.757393
