13

O       0.107552    1.325513    0.125207
C       0.094116   -0.025784    0.066746
N       0.065615   -0.619276   -1.121269
C       0.054189   -1.950734   -1.099377
N       0.068555   -2.720534   -0.015631
C       0.097258   -2.101419    1.164851
O       0.112355   -2.848799    2.278769
C       0.111793   -0.710179    1.279550
O       0.140781   -0.094449    2.488652
H       0.092487    1.643581   -0.787650
H       0.030673   -2.456367   -2.060098
H       0.098268   -3.769536    1.981037
H       0.147594    0.857898    2.331545
