19

O       0.023572   -0.069491   -0.234489
C       0.069397    1.131068   -0.123870
C       1.325939    1.925362   -0.068265
C       1.758557    2.930228    1.058386
C       2.901736    2.966666   -0.001739
C       2.792948    1.410729   -0.080319
C       1.792687    3.022708   -1.068177
C       1.819949    3.074239   -2.553129
C       1.091109    4.148860   -1.740543
H      -0.864703    1.737222   -0.056928
H       1.157120    3.835227    1.165310
H       2.000632    2.478488    2.023787
H       3.812857    3.564592    0.034012
H       3.111586    0.855793    0.805043
H       3.132891    0.938965   -1.003461
H       2.744313    3.355534   -3.048278
H       1.212430    2.372547   -3.116240
H       0.006212    4.154536   -1.777530
H       1.536005    5.138376   -1.698118
