16

N       0.026146    1.464030    0.154376
C      -0.032834    0.064235    0.044008
C      -1.149663   -0.761046    0.035092
C      -2.597240   -0.852901    0.048634
C      -2.951913   -2.151762    0.012026
C      -1.722221   -3.039931   -0.029520
N      -0.668599   -2.042239   -0.009001
N       0.658634   -2.128333   -0.023383
C       1.054231   -0.846936    0.008247
H       0.911252    1.832278   -0.169884
H      -0.720107    1.930413   -0.345663
H      -3.271262   -0.008488    0.088146
H      -3.955923   -2.550941    0.014413
H      -1.654273   -3.711664    0.835329
H      -1.673071   -3.657217   -0.935407
H       2.109228   -0.611274    0.007093
