15

C      -0.019108    1.544870    0.120022
C      -0.009807    0.056311    0.003602
C       0.008676   -0.750821   -1.116756
N       0.024469   -0.439292   -2.472664
C       0.041854   -1.357482   -3.485268
O       0.045781   -2.560844   -3.322988
N       0.009301   -2.014994   -0.637854
N      -0.008697   -2.014350    0.709961
N      -0.019427   -0.769185    1.090194
H       0.866319    2.003334   -0.336522
H      -0.904476    1.993180   -0.346635
H      -0.026750    1.814609    1.177989
H       0.022738    0.539704   -2.714532
H       0.052241   -0.877147   -4.478663
H       0.020752   -2.859652   -1.191917
