19

O       0.121604    1.152501   -0.614870
C      -0.266374   -0.062451   -0.007012
C      -1.763214   -0.071196    0.287183
O      -2.518028    0.170664   -0.898099
C      -2.745198   -0.969578   -1.704221
C      -3.673780   -0.550821   -2.855653
O      -3.787131   -1.594596   -3.778758
C      -5.039436   -0.150789   -2.329921
O      -6.044192   -0.688625   -2.731649
H      -0.543683    1.335221   -1.289329
H       0.003353   -0.930124   -0.631798
H       0.290678   -0.154172    0.931974
H      -2.070972   -1.016064    0.758822
H      -2.004869    0.754820    0.963384
H      -1.820373   -1.368654   -2.142123
H      -3.213229   -1.776587   -1.119349
H      -3.233444    0.350051   -3.319218
H      -4.739328   -1.768709   -3.856157
H      -5.059955    0.646075   -1.564420
