14

C      -0.206047    1.444530   -0.027796
C       0.300997    0.030660   -0.054809
O       1.244939   -0.421258    0.517036
O      -0.520327   -0.736246   -0.880484
C      -0.222953   -2.048117   -1.003836
C       0.281621   -2.796798   -2.008859
N       0.279651   -4.128499   -1.605797
C      -0.212424   -4.102244   -0.412596
O      -0.553559   -2.865983    0.033267
H       0.455067    2.054459    0.585789
H      -0.256151    1.843558   -1.044516
H      -1.220915    1.464480    0.379695
H       0.639932   -2.481675   -2.974330
H      -0.384531   -4.922817    0.265271
