23

C       0.304736    1.517490    0.157936
C      -0.043286    0.016004    0.032779
C       0.543746   -0.757339    1.236348
C      -1.502899   -0.137829    0.031779
C      -2.699995   -0.257833    0.043943
C       0.562822   -0.540835   -1.276162
C       0.249626   -1.994509   -1.729489
C       0.224557   -1.486750   -3.196506
C       0.044566   -0.042935   -2.654667
H       1.391836    1.649850    0.175308
H      -0.098583    2.085552   -0.684488
H      -0.108148    1.937437    1.079428
H       0.135364   -0.380252    2.178157
H       0.312139   -1.823554    1.168672
H       1.632530   -0.641007    1.261319
H      -3.756674   -0.362467    0.057393
H       1.648455   -0.397736   -1.214933
H       0.968127   -2.775713   -1.469570
H      -0.745423   -2.302741   -1.395786
H       1.192040   -1.618819   -3.689535
H      -0.555127   -1.879850   -3.852901
H      -1.012020    0.234499   -2.598610
H       0.596431    0.761770   -3.146576
