19

C       0.048907    1.330102    0.712194
C      -0.048029    0.037255   -0.079495
O      -1.319878   -0.534914    0.146552
C      -1.516262   -1.747974   -0.546750
C      -2.885354   -2.265846   -0.240030
C      -3.828967   -1.682823    0.579530
N      -4.910997   -2.499903    0.558045
N      -4.744072   -3.583490   -0.221341
C      -3.513738   -3.443618   -0.707567
H       1.025106    1.799320    0.558170
H      -0.727642    2.032546    0.396265
H      -0.078169    1.135873    1.781022
H       0.095297    0.230307   -1.156401
H       0.744611   -0.666110    0.227972
H      -1.393682   -1.590809   -1.633375
H      -0.746611   -2.484244   -0.253453
H      -3.798649   -0.772647    1.154275
H      -5.782747   -2.379739    1.044459
H      -3.118034   -4.193236   -1.378096
