16

N      -0.100576   -1.091269    0.542743
C      -0.062070    0.021596    0.234532
C       0.010733    1.437093   -0.142318
C       1.421651    1.965028   -0.121605
C       2.065714    2.572675   -1.122432
C       3.468111    2.993869   -0.736201
C       3.552083    2.597536    0.734046
O       2.612402    3.265516    1.578259
C       2.287551    1.939789    1.101820
H      -0.428424    1.558382   -1.137822
H      -0.620834    2.001855    0.556684
H       1.640928    2.784966   -2.097827
H       4.226620    2.471033   -1.332468
H       3.634009    4.068387   -0.878266
H       4.505845    2.356617    1.194576
H       2.187754    1.176806    1.867788
