18

C      -0.059402    1.338473   -0.110708
C      -0.070895   -0.177881   -0.065333
O       0.856342   -0.869358   -0.424675
N      -1.218252   -0.719284    0.512764
C      -2.592879   -0.554443    0.091687
C      -1.918826   -1.903019    0.076335
C      -1.573690   -2.550296   -1.226548
C      -0.982935   -3.888869   -1.278670
O      -2.370899   -3.686614   -1.566873
H       0.946982    1.679907   -0.351785
H      -0.750921    1.699948   -0.879922
H      -0.383797    1.760176    0.844413
H      -3.313017   -0.312026    0.868812
H      -2.780210   -0.084852   -0.872412
H      -2.169613   -2.609342    0.865787
H      -1.373248   -1.866829   -2.051837
H      -0.361329   -4.166792   -2.127444
H      -0.770721   -4.417234   -0.350618
