20

C      -0.178447    1.480856   -0.114091
N       0.080767    0.055594    0.044113
C       1.396845   -0.528195   -0.153854
C       2.519346    0.320160    0.423393
O       3.087049   -0.392530    1.539671
C       1.865672    0.346210    1.746611
C       1.847011    1.362001    2.843830
C       0.721183   -0.530565    1.209980
C       0.060915   -1.647503    1.962961
H       0.625120    2.143510    0.234454
H      -0.352466    1.685590   -1.175382
H      -1.094448    1.733903    0.429580
H       1.506514   -1.351752   -0.850800
H       3.148846    1.063915   -0.051319
H       2.781042    1.929828    2.853095
H       1.010321    2.057043    2.724064
H       1.738868    0.873735    3.818844
H      -0.614699   -1.260705    2.735142
H      -0.528417   -2.268274    1.283710
H       0.813760   -2.272688    2.453168
