14

C       0.011536    1.542864    0.222002
N       1.278438    1.970755   -0.442204
C       2.199889    0.803955   -0.505905
C       1.282240   -0.382221   -0.368936
N       1.375586   -1.671856   -0.530470
O       0.096245   -2.147387   -0.196982
C      -0.695795   -1.106867    0.152573
C       0.000789    0.048201    0.059234
H       0.035775    1.826445    1.282333
H      -0.840343    2.058264   -0.229733
H       1.050532    2.233714   -1.394293
H       2.780761    0.817278   -1.431063
H       2.911245    0.836310    0.329268
H      -1.705959   -1.371896    0.423121
