23

C      -0.111744    1.482745   -0.036684
C       0.218852    0.000076   -0.068758
O       0.400671   -0.450641    1.260682
C       0.678011   -1.826493    1.355228
C       2.119865   -2.356757    1.026643
C       2.162417   -2.982308    2.425608
C       2.025719   -1.942534    3.500815
C       2.636037   -0.555641    3.484625
C       0.782000   -2.381303    2.769031
H       0.703227    2.048627    0.423763
H      -0.267513    1.862064   -1.051158
H      -1.020882    1.659410    0.545075
H      -0.596117   -0.567864   -0.549430
H       1.128731   -0.178865   -0.664603
H      -0.065194   -2.392364    0.773150
H       2.125307   -3.088173    0.215681
H       2.876877   -1.594907    0.818075
H       2.520971   -3.982291    2.637643
H       2.057360   -2.401684    4.488494
H       2.524671   -0.066445    2.516989
H       2.143684    0.083521    4.225494
H       3.702005   -0.598955    3.736759
H      -0.048042   -2.836539    3.296884
