17

C      -0.029348    1.525982   -0.039567
C       0.032976   -0.004780   -0.066006
C       0.809832   -0.537890   -1.233882
C       2.252709   -0.210838   -1.719820
C       1.528359   -1.040883   -2.800837
C       1.002450   -2.003187   -1.713630
O       0.324650   -0.202324   -2.609148
H       0.969152    1.960797    0.071545
H      -0.459325    1.907961   -0.969415
H      -0.643404    1.877596    0.794415
H       0.491882   -0.388831    0.853907
H      -0.979496   -0.424381   -0.111315
H       2.431119    0.832630   -1.981784
H       3.090508   -0.669743   -1.187718
H       1.829984   -1.253699   -3.826045
H       1.723666   -2.628826   -1.180649
H       0.081540   -2.530325   -1.967161
