13

C      -0.014437    1.405333    0.004032
O      -0.017805   -0.005587   -0.038343
C       0.643458   -0.569879    1.071271
C       0.618453   -2.021620    0.990617
C       0.619055   -3.228452    0.959888
C       0.593367   -4.665637    0.878644
O       1.087364   -5.407191    1.696646
H       1.009146    1.811244   -0.005610
H      -0.542886    1.752993   -0.885625
H      -0.529412    1.787754    0.899094
H       1.693325   -0.230069    1.121701
H       0.169649   -0.253681    2.017724
H       0.070308   -5.054995   -0.018253
