19

C      -0.575438    1.306293    0.162957
C       0.163272   -0.026781    0.151245
C       1.003295   -0.224833   -1.168588
C       2.255437    0.330382   -0.533994
C       1.576824   -0.117249    0.769162
C       1.973207   -1.356417    1.136179
C       2.761685   -1.999859    0.009769
C       2.359340   -1.034405   -1.128129
O       2.859238   -1.244830   -2.410656
H       0.090506    2.130816   -0.109988
H      -1.413652    1.296379   -0.542798
H      -0.979768    1.510435    1.159531
H      -0.509227   -0.841828    0.440716
H       0.628488    0.019662   -2.159941
H       2.828276    1.222328   -0.749566
H       1.360816   -1.976783    1.785632
H       3.859330   -2.033035    0.095614
H       2.422023   -3.032932   -0.131751
H       3.819845   -1.170590   -2.372489
