18

O      -0.068223   -0.075042    0.260948
C       0.006959    1.113594    0.056765
C      -1.275046    1.970468   -0.001896
O      -1.475997    2.740797   -1.170536
C      -0.547418    3.793739   -1.381039
C       0.677103    3.304879   -2.131087
N       1.994449    3.745816   -1.640751
C       1.597888    2.334981   -1.487068
C       1.348227    1.831581   -0.072626
H      -2.121344    1.284362    0.068417
H      -1.274678    2.621851    0.891474
H      -1.076956    4.551336   -1.967649
H      -0.243228    4.255156   -0.431449
H       0.542695    3.202816   -3.205768
H       2.643616    3.853173   -2.415785
H       2.061461    1.606654   -2.148143
H       1.358561    2.692123    0.604982
H       2.133214    1.138465    0.239592
