14

F       0.001249    0.019418    0.003388
C      -0.008211    1.356230    0.010473
C      -1.226449    2.014284    0.030616
C      -1.244180    3.417396    0.038164
C      -0.029220    4.121631    0.025158
C       1.176947    3.431776    0.005016
C       1.200806    2.039045   -0.002564
C      -2.485550    4.116746    0.058839
C      -3.533571    4.709330    0.076287
H      -2.147662    1.445518    0.040298
H      -0.045660    5.204593    0.031026
H       2.111450    3.982010   -0.004943
H       2.129401    1.481215   -0.018213
H      -4.457954    5.231572    0.091643
