22

C      -2.246075   -0.089868    2.059231
C      -1.448178   -1.365667    1.871826
O      -1.105323   -1.605937    0.486150
C       0.288827   -1.776921    0.801848
C       0.054542   -1.434298    2.292051
C       0.700957   -0.170153    2.797456
C       0.784092    0.128940    4.258918
N       1.992256   -0.144401    3.493994
C       2.708815   -1.379804    3.773060
H      -1.716417    0.780899    1.664728
H      -3.199603   -0.174399    1.528358
H      -2.460494    0.079525    3.119699
H      -2.021435   -2.214628    2.272375
H       0.635404   -2.799504    0.604160
H       0.924112   -1.074473    0.247171
H       0.254990   -2.265734    2.968825
H       0.592321    0.676867    2.121038
H       0.665280    1.143259    4.631774
H       0.427785   -0.646670    4.938085
H       2.079701   -2.213936    4.121517
H       3.243328   -1.703626    2.873927
H       3.451260   -1.178837    4.552089
