18

C       0.121691    1.401859   -0.397620
C      -0.387659    0.301565    0.529446
C      -1.487740   -0.542477   -0.112953
O      -1.898955   -0.346110   -1.238164
N      -1.956666   -1.541317    0.718366
C      -2.946478   -2.511455    0.505799
C      -3.654060   -2.523593   -0.823588
N      -3.147967   -3.301927    1.486787
H       0.905989    1.983531    0.094465
H       0.528378    0.977735   -1.318667
H      -0.688073    2.078350   -0.680821
H       0.429831   -0.367786    0.828164
H      -0.780385    0.726751    1.462470
H      -1.545064   -1.619146    1.638650
H      -2.946666   -2.663213   -1.644092
H      -4.390358   -3.330213   -0.830147
H      -4.150211   -1.569310   -1.013815
H      -3.877312   -3.974105    1.256683
