23

C       0.065215    1.510560   -0.094465
C      -0.065677    0.021911    0.072072
C      -1.316888   -0.710215   -0.389918
C      -1.144826   -2.143566    0.163284
C      -0.262155   -2.019584    1.443083
C      -1.123180   -1.765510    2.692514
C       0.629043   -3.251373    1.644628
C       0.553748   -0.766494    1.145634
O       1.131172   -0.749640   -0.168393
H       1.007628    1.865568    0.330016
H       0.046286    1.784692   -1.155237
H      -0.761494    2.032436    0.399525
H      -2.196716   -0.213319    0.037321
H      -1.433391   -0.691364   -1.478733
H      -2.101602   -2.629082    0.375902
H      -0.623824   -2.757139   -0.575053
H      -1.731159   -2.645570    2.927240
H      -0.499379   -1.550280    3.567565
H      -1.801848   -0.917257    2.552426
H       1.308206   -3.376396    0.796182
H       1.232977   -3.161687    2.554793
H       0.025338   -4.161188    1.736602
H       1.164803   -0.316917    1.927791
