23

C      -0.097812    1.481634   -0.206376
C      -0.010071    0.006152    0.197786
C      -1.346064   -0.704702    0.078127
O      -1.896494   -0.700991   -1.276850
C      -2.132790   -2.118716   -1.200239
C      -3.415438   -2.631985   -1.776241
C      -3.487968   -2.431541   -3.296593
C      -0.824042   -2.840768   -1.101163
C      -1.446122   -2.227474    0.143353
H       0.876897    1.972211   -0.127869
H      -0.445920    1.573235   -1.239035
H      -0.799874    2.027971    0.433376
H       0.734419   -0.506583   -0.420960
H       0.326926   -0.084227    1.239065
H      -2.079059   -0.236909    0.751252
H      -3.508946   -3.695929   -1.528361
H      -4.254776   -2.115549   -1.294482
H      -4.446300   -2.780107   -3.692682
H      -3.379079   -1.372756   -3.548361
H      -2.689037   -2.981558   -3.804083
H      -0.883665   -3.924708   -1.132964
H       0.068136   -2.418812   -1.554211
H      -1.701470   -2.808272    1.019977
