19

C       0.081014    1.492007    0.015792
C       0.038542    0.036852    0.007103
C      -0.002694   -1.167168    0.016764
C      -0.010792   -2.610683   -0.025369
C       1.179843   -3.222799   -0.745907
N      -0.512897   -3.285789    1.203007
C      -1.310658   -3.360623   -0.029075
C      -2.657713   -2.684445   -0.012848
H       1.069160    1.862750   -0.278632
H      -0.652511    1.918861   -0.677418
H      -0.136569    1.888206    1.013885
H       2.113970   -2.966700   -0.235320
H       1.092444   -4.313970   -0.781835
H       1.248360   -2.850644   -1.772786
H       0.011003   -4.147576    1.340454
H      -1.280571   -4.302711   -0.577109
H      -2.599646   -1.727459    0.509539
H      -3.013025   -2.502999   -1.032938
H      -3.395360   -3.312600    0.497914
