13

O       0.088016    1.348774    0.185597
C       0.064959    0.004323    0.025921
C       0.102246   -0.797428   -1.083722
O       0.174302   -0.323461   -2.360610
C       0.045782   -2.154579   -0.618970
C      -0.024307   -2.117070    0.764912
N      -0.012061   -0.802850    1.134747
C       0.063799   -3.285250   -1.462860
N       0.083764   -4.166655   -2.216844
H       0.150791    1.745980   -0.690585
H       0.225832   -1.068782   -2.969190
H      -0.079332   -2.914493    1.484680
H      -0.051893   -0.453436    2.076833
