27

C      -0.904310    1.374231   -0.234040
C      -0.545873   -0.114932   -0.221998
C       0.561215   -0.467041   -1.224540
C       0.873541   -1.962438   -1.357760
C       1.334401   -2.614759   -0.041020
C       2.572702   -1.982870    0.604381
C      -0.242654   -2.821585   -2.042992
C       0.825574   -3.446741   -2.978558
C       1.817280   -2.332434   -2.552318
H      -0.034519    1.992750    0.014745
H      -1.258243    1.688372   -1.222397
H      -1.692709    1.602853    0.490139
H      -0.239362   -0.402867    0.790912
H      -1.442079   -0.707862   -0.447378
H       0.267751   -0.092493   -2.215076
H       1.476841    0.080703   -0.962142
H       0.503483   -2.601238    0.675730
H       1.537306   -3.675919   -0.235785
H       2.890112   -2.558830    1.479357
H       3.417346   -1.949841   -0.092291
H       2.381038   -0.958573    0.938931
H      -0.801835   -3.505237   -1.397318
H      -0.960848   -2.201725   -2.588646
H       1.142404   -4.440168   -2.650436
H       0.577198   -3.506629   -4.040723
H       1.879846   -1.525546   -3.288740
H       2.835648   -2.642183   -2.300821
