13

O      -0.038379    0.028741   -0.009075
C      -0.068993    1.222777    0.020280
C      -1.237561    2.209605    0.039684
C      -0.804643    3.239193   -1.044527
C       0.282297    3.546161    0.026595
N      -0.691804    3.132074    1.120878
C       1.111494    2.260892    0.010080
O       2.291492    2.077615   -0.029086
H      -2.242125    1.805534    0.140286
H      -0.501990    2.885319   -2.036396
H      -1.524679    4.057081   -1.136375
H       0.812367    4.491640    0.113987
H      -1.361349    3.894561    1.235477
