22

C      -0.055426    1.580947    0.239488
C      -0.046285    0.056643    0.032295
C       0.881539   -0.633295    1.039548
C      -1.456694   -0.485918    0.051308
C      -2.233771   -0.927907    1.263340
C      -2.019551   -1.886938    0.118012
N      -2.858750   -1.709524   -1.133681
C      -3.822627   -0.606358   -0.954562
C      -2.396814   -0.277802   -1.163517
H       0.952897    1.996856    0.143588
H      -0.695925    2.080915   -0.494481
H      -0.432356    1.833393    1.236875
H       0.354967   -0.141058   -0.973066
H       0.879783   -1.720341    0.909868
H       1.910353   -0.282894    0.911002
H       0.588188   -0.412432    2.071603
H      -1.612957   -1.174850    2.119081
H      -3.195014   -0.513189    1.545690
H      -1.536553   -2.847920    0.245997
H      -4.474834   -0.501893   -1.817611
H      -4.323870   -0.449283   -0.006776
H      -2.031136    0.157216   -2.089823
