20

C       0.198557    1.629379    0.329827
C       1.369967    0.758152   -0.041255
C       2.247570    0.213803    1.083613
C       1.322245   -0.626465    1.991553
C       0.580085    0.037510    3.191851
C      -0.787452   -0.354258    2.559857
C      -0.051524   -0.802962    1.260081
C      -0.019275    0.154686    0.076951
H       0.125829    2.018174    1.339881
H      -0.171281    2.316521   -0.424175
H       1.827591    0.912029   -1.012937
H       3.031506   -0.419482    0.652759
H       2.756957    1.008202    1.642941
H       1.798041   -1.565684    2.283510
H       0.790471   -0.399455    4.171400
H       0.745124    1.116143    3.268503
H      -1.272525   -1.183750    3.080907
H      -1.519126    0.448514    2.440123
H      -0.294588   -1.812042    0.917124
H      -0.580318   -0.116137   -0.811124
