14

O       0.007856    0.082665    0.479274
C      -0.013698    1.187989    0.034939
O      -1.178117    1.840642   -0.217454
C      -1.087217    3.174171   -0.754585
C      -0.068813    3.170127   -1.919351
C       0.981800    3.202689   -0.784012
C      -0.051519    3.971555    0.073275
O       1.124646    1.872381   -0.250206
H      -2.111555    3.518747   -0.884282
H      -0.066592    2.312581   -2.594236
H      -0.089697    4.105515   -2.481226
H       1.992152    3.575307   -0.942648
H      -0.069626    5.035613   -0.168680
H      -0.034062    3.820039    1.153831
