23

C      -0.093929    1.560514    0.002992
C      -0.121522    0.032433    0.082776
C       0.856713   -0.522875    1.136974
C       0.866338   -2.019232    1.226609
C       1.861389   -2.852994    0.933844
C       1.435726   -4.275986    1.142010
O       0.103219   -4.193303    1.637605
C      -0.332349   -2.830677    1.679902
C      -0.834933   -2.497767    3.086110
H       0.904802    1.925710   -0.261122
H      -0.794466    1.932016   -0.751175
H      -0.366978    2.012708    0.963068
H      -1.140147   -0.303438    0.312390
H       0.128247   -0.397564   -0.894762
H       1.869364   -0.169460    0.909272
H       0.594225   -0.095271    2.115170
H       2.849298   -2.574807    0.586088
H       1.456999   -4.860629    0.207021
H       2.068982   -4.811581    1.866963
H      -1.172581   -2.710319    0.974284
H      -0.017411   -2.559028    3.810957
H      -1.263104   -1.490383    3.122336
H      -1.612177   -3.208870    3.379084
