15

C      -0.034025   -1.212666   -0.093074
C       0.009008   -0.012712   -0.025843
C       0.040267    1.409384    0.041038
C       0.279537    2.298972   -1.160120
C       1.210074    2.406331    0.012449
C       0.497282    3.167828    1.140000
N      -0.583157    2.137803    1.160353
C       1.228746    3.240260    2.406900
N       1.828502    3.319170    3.391007
H      -0.064752   -2.273204   -0.138965
H       0.694534    1.798341   -2.028239
H      -0.423652    3.098650   -1.383324
H       2.270777    2.205796   -0.034384
H       0.176625    4.181044    0.867738
H      -1.511621    2.502201    0.959865
