12

C      -0.021252    1.504880    0.061392
C      -0.002857    0.016421   -0.065491
C      -0.062611   -0.817851   -1.165458
C       0.000102   -2.125830   -0.638034
N       0.090539   -2.122685    0.687620
N       0.087101   -0.811889    1.008541
H       0.899963    1.887537    0.516026
H      -0.119660    1.962613   -0.924901
H      -0.860544    1.851858    0.675202
H      -0.139955   -0.516159   -2.197697
H      -0.018024   -3.066156   -1.169580
H       0.148354   -0.550775    1.978301
