18

N       0.239818   -0.140690    1.414907
C       0.121667    0.569146    0.510926
C      -0.032929    1.475039   -0.647707
O       1.112720    2.225957   -0.940854
C       1.388383    3.283575   -0.031062
C       2.196881    2.980221    1.280633
C       3.253186    3.984910    0.807151
C       3.821617    3.527412   -0.500664
C       2.484230    4.219969   -0.502769
H      -0.252032    0.865203   -1.529850
H      -0.907402    2.118135   -0.459560
H       0.455351    3.818096    0.194054
H       1.655594    3.277754    2.180606
H       2.542712    1.950208    1.398143
H       3.743908    4.720810    1.430581
H       4.634801    4.126059   -0.897739
H       3.890595    2.467728   -0.729745
H       2.317963    5.137735   -1.052946
