20

C       0.108893    1.161564   -0.303022
O      -0.072413   -0.123716    0.257490
C      -1.361514   -0.654481    0.093206
C      -2.438912    0.040611    0.903419
C      -1.782781   -1.229032   -1.234379
C      -0.586612   -1.830814   -1.984433
C      -0.272964   -2.738467   -0.753648
C      -1.474901   -2.139348   -0.015224
H       1.179183    1.378865   -0.261477
H      -0.223922    1.198872   -1.349970
H      -0.425990    1.940524    0.258573
H      -2.598404    1.071104    0.569797
H      -3.392546   -0.486522    0.810023
H      -2.160380    0.063684    1.961887
H      -2.740411   -0.982096   -1.680267
H      -0.894213   -2.411748   -2.856583
H       0.195571   -1.130039   -2.289263
H      -0.404974   -3.799028   -0.977690
H       0.696013   -2.590005   -0.272139
H      -2.159133   -2.692637    0.619055
