19

C      -0.091138    1.380103    0.008657
O      -0.032746   -0.037313   -0.053764
C       0.624840   -0.529056   -1.165072
C       0.781299   -2.045581   -0.996272
C       1.296693   -2.694832   -2.273408
O       2.176250   -3.522648   -2.277381
C       0.614188   -2.199036   -3.539807
C       0.490027   -0.665211   -3.512336
O      -0.140103   -0.227975   -2.322558
H       0.917692    1.818328   -0.005684
H      -0.670635    1.793705   -0.823011
H      -0.575716    1.632409    0.953621
H       1.619637   -0.049188   -1.273534
H       1.446980   -2.285918   -0.165430
H      -0.217863   -2.441290   -0.775501
H       1.171759   -2.547844   -4.412290
H      -0.395642   -2.627362   -3.575321
H       1.488073   -0.207092   -3.610828
H      -0.125910   -0.307768   -4.340790
