21

C      -0.787932    1.232247    0.230446
C       0.058249   -0.006178    0.013372
C       0.746816   -0.199087   -1.353089
C       2.063002   -0.238618   -0.546328
C       2.811760   -1.589355   -0.425897
C       4.246964   -1.185508   -0.199806
C       4.438283    0.114226   -0.420355
C       3.163750    0.807593   -0.830541
O       1.340153    0.073964    0.680754
H      -0.265373    2.126293   -0.124300
H      -1.738981    1.146216   -0.307114
H      -1.007899    1.363820    1.294678
H      -0.490581   -0.898344    0.348168
H       0.493544   -1.107013   -1.903763
H       0.657307    0.662653   -2.019913
H       2.387725   -2.181709    0.392250
H       2.707217   -2.186494   -1.343170
H       5.016387   -1.894007    0.086056
H       5.388056    0.631480   -0.342943
H       3.182014    1.082541   -1.895166
H       2.957538    1.724044   -0.267148
