21

C       0.040969    1.436205   -0.101141
O       0.000507    0.033040    0.008938
C       0.606716   -0.613161   -1.066525
C       0.531438   -2.129731   -0.890770
O       0.003304   -2.641230    0.063455
C       1.176125   -2.936546   -2.013441
C       1.068306   -4.446531   -1.811080
C       1.720290   -5.231051   -2.941238
O       1.563918   -6.611564   -2.656929
H       1.074951    1.815385   -0.135688
H      -0.484354    1.792385   -1.001837
H      -0.455719    1.843524    0.782200
H       0.126799   -0.350442   -2.028413
H       1.670506   -0.327304   -1.172413
H       0.712973   -2.630768   -2.962896
H       2.227325   -2.623558   -2.095661
H       1.534034   -4.728911   -0.862002
H       0.016298   -4.737410   -1.731998
H       1.248141   -4.965223   -3.902446
H       2.786336   -4.957594   -3.020175
H       1.976771   -7.114570   -3.364768
