18

C      -0.179179    1.044899    0.129573
O       0.177679   -0.332503    0.193578
C       0.569535   -0.889012   -0.963796
N       0.914113   -2.099027   -1.010912
C       1.331213   -2.637066   -2.287442
C       2.653006   -3.389949   -2.140223
O       2.486422   -4.588522   -1.382687
C       2.655352   -4.514656   -0.044319
O       2.478426   -5.453232    0.671831
H       0.671375    1.665192   -0.177200
H      -1.016740    1.209851   -0.558419
H      -0.483318    1.328355    1.137370
H       0.555562   -0.207767   -1.829985
H       0.577894   -3.353450   -2.638832
H       1.450023   -1.866600   -3.069493
H       3.022215   -3.703128   -3.120360
H       3.407671   -2.743973   -1.673800
H       2.984302   -3.516030    0.293068
