17

O      -0.709289    1.284753   -0.357348
C       0.439180    0.973117   -0.533623
C       1.631407    1.902779   -0.254452
O       2.739942    1.461864   -0.451309
C       1.314639    3.307623    0.234963
C       2.574880    4.119157    0.621949
C       2.850902    5.070939   -0.573093
C       1.558863    5.043393   -1.351103
C       0.717029    4.107656   -0.917755
H       0.753865   -0.025695   -0.904027
H       0.592193    3.206905    1.054000
H       2.361698    4.701738    1.521767
H       3.420453    3.463680    0.835931
H       3.118115    6.081118   -0.243241
H       3.685579    4.720786   -1.194541
H       1.360046    5.716162   -2.178443
H      -0.261445    3.881529   -1.321738
