16

C      -0.147508    1.378948    0.006188
N      -0.016112   -0.055222    0.110821
C       0.673092   -0.671874    1.088658
N       1.260171    0.059398    1.999865
O       1.968067   -0.630695    3.000783
C       2.022733   -1.959388    2.998516
C       1.436445   -2.758786    2.084127
C       0.686786   -2.158823    1.016175
N       0.048867   -2.705605    0.041541
H       0.831738    1.861319   -0.095433
H      -0.752390    1.613812   -0.871159
H      -0.630267    1.799690    0.896043
H      -0.439413   -0.687625   -0.552821
H       2.608014   -2.317071    3.839209
H       1.533930   -3.834700    2.160676
H       0.118161   -3.723176    0.080313
