13

N       0.015587    1.362848    0.151384
C      -0.052080   -0.007593    0.052193
C      -1.166631   -0.759264    0.019473
O      -1.101603   -2.140945   -0.019487
C       0.107429   -2.684008   -0.015749
O       0.008654   -4.009931   -0.033325
N       1.246013   -2.087361   -0.003212
C       1.268896   -0.698723    0.012620
O       2.298706   -0.051849   -0.015473
H       0.941469    1.703565   -0.076638
H      -0.744757    1.902704   -0.230481
H      -2.191271   -0.418584    0.024357
H       0.916982   -4.343852   -0.033896
