14

O      -0.029396    1.442894    0.011019
C      -0.035659    0.022160    0.002273
C      -1.409165   -0.462795    0.012505
C      -2.532100   -0.896891    0.020646
C      -3.848954   -1.423064    0.030180
N      -4.931538   -0.645473    0.039929
N      -5.928975   -1.554565    0.046349
C      -5.429902   -2.807980    0.040403
N      -4.115459   -2.770985    0.030119
H       0.890877    1.725224    0.003429
H       0.474294   -0.377316   -0.890012
H       0.491331   -0.388302    0.879543
H      -6.886521   -1.243008    0.054429
H      -6.048526   -3.692815    0.043842
