13

O       0.045021    1.336934    0.007940
C      -0.024304    0.000977    0.000954
C      -1.182204   -0.693679    0.003627
C      -1.188663   -2.144346   -0.004405
O      -2.189043   -2.841771   -0.002475
C       0.181514   -2.732896   -0.015239
O       0.221851   -4.084188   -0.022851
C       1.268513   -1.942361   -0.016985
O       1.190871   -0.568532   -0.009017
H       0.975261    1.595605    0.004189
H      -2.123133   -0.161210    0.011885
H       1.136831   -4.387115   -0.029629
H       2.298568   -2.273493   -0.024555
