20

C      -0.615851    0.408136   -0.853505
O      -1.650961    0.205222    0.088515
C      -1.260007   -0.605142    1.173742
C      -1.117714   -2.103540    0.872145
O      -0.350448   -2.804918    1.511871
N      -1.900051   -2.604863   -0.116413
C      -3.141666   -2.159163   -0.775088
C      -3.425295   -3.642008   -1.147146
C      -2.120203   -4.028417   -0.393537
H      -1.010187    1.073107   -1.625445
H       0.260880    0.882136   -0.387590
H      -0.294494   -0.533667   -1.320714
H      -0.304712   -0.280340    1.608323
H      -2.032887   -0.487836    1.942924
H      -3.865030   -1.698056   -0.095427
H      -2.978008   -1.480868   -1.615914
H      -4.338677   -4.054302   -0.717511
H      -3.411572   -3.849707   -2.217595
H      -1.332568   -4.486119   -1.000009
H      -2.248485   -4.623368    0.516053
