18

O      -0.086365    1.430329   -0.043110
C       0.010278    0.019044    0.015956
C       0.610806   -0.545265    1.346561
C      -0.565061   -1.383193    1.940778
C      -1.185044   -1.961669    0.651883
C      -1.423900   -0.570082    0.039542
N      -2.171676    0.060454    1.130814
C      -1.607254   -0.328394    2.337401
O      -1.843682    0.131424    3.429551
H       0.798225    1.800187    0.032225
H       0.559653   -0.364446   -0.855853
H       1.475735   -1.187050    1.156214
H       0.922472    0.262550    2.014196
H      -0.295298   -2.060182    2.748419
H      -0.489136   -2.574413    0.072116
H      -2.115122   -2.510341    0.813399
H      -1.958049   -0.518389   -0.908864
H      -2.497386    1.012293    1.044979
