16

O      -0.203778    0.288942    0.728135
C       0.118426    1.054202   -0.151307
C       1.305467    1.953779   -0.074252
C       1.819747    2.276188    1.322278
C       2.566642    1.292856    0.493908
C       1.472006    2.986272   -1.145863
O       1.014981    2.652073   -2.459447
C       0.345862    3.704746   -1.756663
H      -0.448168    1.107375   -1.102043
H       2.243729    3.263144    1.472690
H       1.213832    1.894072    2.135615
H       2.475339    0.243163    0.747039
H       3.510921    1.587371    0.048744
H       2.438379    3.494370   -1.129091
H      -0.671778    3.481460   -1.437964
H       0.494396    4.704318   -2.161955
