18

C      -0.250499    1.556212    0.128792
C       0.003753    0.060581    0.068326
C      -1.169229   -0.738674   -0.473746
O       1.220330   -0.214693   -0.736563
C       1.878213   -0.808541    0.317059
O       2.968151   -1.280965    0.327429
C       0.734062   -0.564915    1.270366
C       0.751630   -0.175058    2.698515
N       0.265459   -1.499385    2.284088
H       0.633004    2.086392    0.492790
H      -0.501368    1.941623   -0.864162
H      -1.089044    1.776084    0.797891
H      -1.427396   -0.398667   -1.480891
H      -0.929500   -1.804100   -0.518801
H      -2.051626   -0.604992    0.161764
H       1.691921   -0.183281    3.241522
H       0.034752    0.576744    3.019555
H      -0.752441   -1.526581    2.286082
