21

C       0.024761    1.407726   -0.025650
O      -0.061223    0.059636    0.387125
C      -1.305227   -0.570730    0.173315
C      -2.437983    0.049203    0.984539
C      -1.669451   -0.898704   -1.301234
O      -1.755307   -2.308242   -0.998632
C      -1.190314   -2.108091    0.327567
C       0.196484   -2.730899    0.392891
O       0.105401   -4.108486    0.075431
H       1.073277    1.699026    0.069782
H      -0.279634    1.536991   -1.075002
H      -0.581707    2.078506    0.597626
H      -2.663319    1.068899    0.657607
H      -3.349456   -0.544278    0.869574
H      -2.171534    0.075882    2.045851
H      -2.618659   -0.507053   -1.683436
H      -0.865402   -0.676194   -2.013950
H      -1.838246   -2.557025    1.089880
H       0.878887   -2.199060   -0.283593
H       0.603784   -2.654316    1.405808
H      -0.379092   -4.149981   -0.758717
