21

C       0.199395    1.452585   -0.908728
N       0.292362    0.019250   -1.076327
C       0.706583   -0.811272   -0.088790
O       1.043375   -0.456234    1.028073
C       0.690568   -2.299608   -0.466736
N       0.595716   -2.514343   -1.905602
C       1.801914   -2.922531   -2.625366
C       0.667511   -3.873401   -2.451901
C       0.789327   -5.099294   -1.574470
H       0.825480    1.981420   -1.636512
H      -0.832973    1.804583   -1.019543
H       0.547289    1.687740    0.098395
H       0.042371   -0.425720   -1.947800
H       1.574256   -2.748309    0.005863
H      -0.190242   -2.738293    0.017743
H       1.983049   -2.430961   -3.577490
H       2.697943   -3.108458   -2.034402
H       0.000048   -4.009686   -3.302091
H       1.518305   -4.966309   -0.771645
H      -0.173728   -5.357949   -1.120834
H       1.109735   -5.955288   -2.177297
