22

C       0.141320    1.545599    0.036175
C       0.046517    0.010919    0.043600
C       0.562496   -0.574937   -1.279289
C       0.710950   -0.549079    1.283033
C       0.342198   -0.207745    2.738775
C       1.579247   -1.091047    2.824171
C       1.157608   -2.012186    1.643861
C       2.523730   -1.766198    1.015278
N       2.242746   -0.387363    1.609671
H       1.188839    1.862458    0.019397
H      -0.358398    1.958974   -0.845608
H      -0.326409    1.983050    0.922984
H      -1.015324   -0.264276    0.134117
H       1.599105   -0.278389   -1.468093
H       0.509678   -1.667848   -1.290329
H      -0.041439   -0.203629   -2.113575
H       0.472373    0.834509    3.042395
H      -0.594232   -0.626842    3.117604
H       2.189782   -1.366952    3.685925
H       0.536717   -2.914689    1.684281
H       3.383790   -2.257286    1.484256
H       2.628140   -1.780735   -0.070883
