20

C      -0.047393    1.529975    0.000766
C      -0.020715    0.023554    0.003461
C      -0.063873   -0.712126   -1.177557
N      -0.043136   -2.045846   -1.235366
C       0.023291   -2.736149   -0.093712
C       0.043902   -4.238468   -0.215228
C       0.071946   -2.103426    1.165402
C       0.146568   -2.901314    2.441819
C       0.048527   -0.713864    1.187381
H       0.849808    1.948492    0.470783
H      -0.102712    1.920828   -1.018918
H      -0.910167    1.917508    0.554376
H      -0.118489   -0.195404   -2.134613
H       0.952904   -4.667228    0.223752
H      -0.804055   -4.698044    0.306877
H      -0.001113   -4.515365   -1.269064
H       1.038973   -3.537567    2.470021
H       0.176734   -2.244079    3.314909
H      -0.716582   -3.568012    2.553601
H       0.084800   -0.195582    2.143193
