15

C      -0.278415    1.494787    0.030509
C       0.111828    0.034324    0.003616
O       1.369143   -0.190442   -0.729607
C       1.978030   -0.795206    0.351831
O       3.072673   -1.249313    0.415751
C       0.770871   -0.589750    1.237233
C       0.694207   -0.207391    2.666653
N       0.264957   -1.539212    2.217384
H       0.520801    2.102914    0.462862
H      -0.482448    1.855153   -0.981817
H      -1.186546    1.633669    0.627121
H      -0.672067   -0.590363   -0.437967
H       1.601205   -0.198063    3.263452
H      -0.056442    0.527247    2.947500
H      -0.750040   -1.589881    2.158647
