14

O      -0.495727    0.479333    0.622756
C       0.371020    0.670661   -0.185974
C       1.363072    1.842888   -0.117654
C       1.343481    2.593646    1.223653
O       2.684543    2.384431    1.746053
C       3.322106    1.640328    0.831468
N       2.726304    1.272038   -0.232873
C       1.144564    2.750585   -1.338844
O       0.772698    3.890136   -1.267842
H       0.541647   -0.008338   -1.045590
H       1.176758    3.664258    1.096300
H       0.621436    2.171153    1.923922
H       4.349213    1.395144    1.078149
H       1.386550    2.263930   -2.305124
