12

O      -0.094157   -0.022617   -0.001691
C      -0.006812    1.185160    0.007624
C       1.233802    1.910041   -0.000422
C       2.263023    2.546948   -0.006732
C       3.473253    3.263703   -0.014664
C       4.745017    2.766620   -0.033197
O       5.607713    3.809357   -0.034376
C       4.809815    4.911771   -0.016423
N       3.547148    4.664450   -0.004182
H      -0.905838    1.833565    0.023361
H       5.162610    1.774959   -0.045997
H       5.309322    5.867551   -0.014327
