20

C      -0.096190    1.491512   -0.291503
N      -0.154232    0.035026   -0.171062
C      -0.386775   -0.500144    1.165472
C      -1.459687   -0.538187    0.133162
C       1.309422    1.981445   -0.118881
C       1.930827    2.397806    1.204423
C       1.897964    3.362887    0.060099
O       2.975343    3.114760   -0.844200
C       2.436107    1.793278   -1.132751
H      -0.461411    1.749693   -1.293980
H      -0.759656    1.997571    0.434552
H       0.168124   -1.398013    1.421566
H      -0.512163    0.205975    1.984809
H      -2.299024    0.143554    0.265316
H      -1.702691   -1.463584   -0.381125
H       1.213035    2.589183    1.997104
H       2.883620    1.989394    1.530877
H       1.463386    4.356371    0.076970
H       3.162895    0.994252   -0.949347
H       2.081074    1.741805   -2.168674
