19

C      -0.049479    1.535587   -0.031874
C      -0.046512    0.022227    0.030908
C      -1.259464   -0.662048   -0.567840
N       1.284890   -0.586708   -0.175734
C       0.671132   -0.654994    1.143809
C       1.283430   -0.146938    2.464894
N       0.781448   -1.396491    3.059474
C       0.277196   -1.925071    1.893650
O      -0.233657   -2.978981    1.610601
H       0.883359    1.945864    0.361831
H      -0.154367    1.872725   -1.069130
H      -0.886535    1.948444    0.541570
H      -1.308902   -0.469432   -1.645931
H      -1.229935   -1.740953   -0.398074
H      -2.182277   -0.275595   -0.121933
H       1.197255   -1.496076   -0.628919
H       2.373954   -0.061792    2.447370
H       0.838626    0.759677    2.886570
H       0.884136   -1.791494    3.980967
