14

C      -0.072811    1.379322    0.116300
O       0.026456   -0.045401   -0.031975
C       0.652903   -0.463887   -1.146412
O       1.111754    0.265007   -1.983850
C       0.680217   -1.982584   -1.166938
C       1.376641   -2.560942   -2.384349
F       2.656877   -2.184923   -2.455287
F       1.353655   -3.904735   -2.316525
F       0.773705   -2.206612   -3.522823
H       0.921339    1.831597    0.146142
H      -0.632932    1.812954   -0.715612
H      -0.596844    1.541636    1.057721
H       1.185190   -2.349507   -0.269317
H      -0.343753   -2.364828   -1.137015
