16

O      -0.066495    1.339021    0.008507
N       0.044859   -0.061647    0.004234
C      -1.105742   -0.624347    0.011321
C      -1.250447   -2.138624    0.008618
C      -2.781131   -2.382130    0.018937
C      -3.384328   -0.985529    0.026971
C      -2.431574   -0.027542    0.022486
C      -4.780922   -0.782275    0.037573
C      -5.980209   -0.657635    0.046726
H       0.855859    1.614908    0.002409
H      -0.773228   -2.572253   -0.874157
H      -0.760768   -2.576504    0.882430
H      -3.123921   -2.943844   -0.856701
H      -3.111375   -2.948566    0.896344
H      -2.606618    1.037906    0.026451
H      -7.034408   -0.530454    0.054174
