16

O      -0.144887    0.094262    0.335464
C      -0.057841    1.280546    0.158613
C      -1.232481    2.269730    0.146609
O      -0.722541    3.528663   -0.247530
C       0.691573    3.541516   -0.083545
C       1.248268    3.750224    1.358594
C       2.004775    2.394891    1.244022
C       1.215484    2.089370   -0.066545
H      -2.006909    1.947510   -0.557479
H      -1.684545    2.297164    1.150950
H       1.100592    4.221697   -0.832385
H       1.861386    4.639903    1.514363
H       0.450501    3.746129    2.105821
H       3.072295    2.517055    1.050814
H       1.880638    1.677255    2.057794
H       1.775172    1.691170   -0.914870
