22

C       0.009873    1.543873    0.028417
C      -0.049078    0.010406   -0.014135
C      -1.521892   -0.439555   -0.043260
C       0.725647   -0.508165   -1.242548
C       0.826956   -2.027870   -1.254192
O       1.320444   -2.582488   -0.025248
C       0.885191   -2.065589    1.164967
N       0.781927   -2.790013    2.198828
C       0.661550   -0.572568    1.225692
H       1.045064    1.902351    0.032031
H      -0.493504    1.979956   -0.841599
H      -0.482141    1.930924    0.927429
H      -2.018993   -0.099059   -0.958204
H      -1.627591   -1.527025    0.014231
H      -2.065047   -0.018316    0.808954
H       0.245530   -0.182751   -2.173422
H       1.735145   -0.078651   -1.234112
H      -0.149984   -2.480653   -1.469073
H       1.524159   -2.369751   -2.023458
H       1.014552   -3.758124    1.964036
H       1.651188   -0.103328    1.314902
H       0.117878   -0.354360    2.147380
