18

O      -0.000423    1.410599   -0.043818
C      -0.016216    0.002358    0.096798
C      -1.425383   -0.482182    0.108264
C      -2.556084    0.220735    0.012895
C      -3.700731   -0.730550    0.007992
C      -3.666873   -1.936687   -0.897391
C      -2.276485   -2.290022   -1.395674
C      -1.793500   -1.947603    0.053999
N      -3.245451   -2.033733    0.547926
H       0.909497    1.709777    0.037598
H       0.535588   -0.491365   -0.724066
H       0.481620   -0.315579    1.030560
H      -2.644745    1.293915   -0.073914
H      -4.682390   -0.413698    0.347816
H      -4.588735   -2.388016   -1.253659
H      -2.208447   -3.362848   -1.588483
H      -1.844437   -1.733910   -2.233343
H      -1.115468   -2.650291    0.539615
