18

C       0.001238    1.435916    0.009642
C       1.365718    0.736485    0.061700
C       2.217475    0.256792   -1.106501
N       1.508856   -0.890288   -1.726930
C       0.902804   -1.970467   -0.880934
C       0.801133   -1.992721    0.661628
O      -0.158884   -0.974025    1.022882
C       0.076624   -0.043708   -0.000192
C       0.108002   -0.805189   -1.320416
H      -0.281379    1.950157    0.922225
H      -0.344162    1.918405   -0.900954
H       1.839686    0.794308    1.035524
H       2.354502    0.997981   -1.903016
H       3.214005   -0.043375   -0.766173
H       0.887396   -2.924702   -1.395592
H       0.416892   -2.957846    1.002168
H       1.760116   -1.795691    1.158731
H      -0.691252   -0.780721   -2.053869
