23

C      -0.153635    1.595252    0.014336
C      -0.065454    0.065359    0.017425
C       0.769751   -0.501083    1.170517
C       0.893269   -2.025241    1.190837
C       2.171783   -2.390528    0.455430
C       2.818120   -1.085793    0.002186
C       2.299575   -0.208547    1.166740
C       2.764999   -1.028368    2.395734
C       2.148199   -2.359431    1.973211
H       0.829936    2.055684   -0.125254
H      -0.802623    1.953353   -0.791042
H      -0.561015    1.969568    0.960477
H      -1.077833   -0.353134    0.092295
H       0.328089   -0.286048   -0.943430
H       0.336585   -0.138802    2.113857
H       0.027842   -2.676074    1.189444
H       2.268690   -3.317736   -0.093872
H       3.912323   -1.137909   -0.016417
H       2.478665   -0.750570   -0.982312
H       2.594121    0.840293    1.152584
H       3.855936   -1.070537    2.486802
H       2.353841   -0.645122    3.335864
H       2.232188   -3.261125    2.565700
