16

C      -0.018038    1.427862    0.186376
N      -0.009533   -0.009712    0.029474
N      -0.060950   -0.595334   -1.156345
C      -0.032926   -1.902123   -0.881298
C       0.036953   -2.043189    0.516685
N       0.089080   -3.167146    1.326528
C       0.083420   -4.474623    0.914045
N       0.027286   -4.820880   -0.311630
N       0.050862   -0.831128    1.078212
H       0.893955    1.758433    0.690536
H      -0.071094    1.861919   -0.810781
H      -0.884308    1.738588    0.776482
H      -0.061510   -2.661916   -1.639657
H       0.135405   -2.980800    2.314807
H       0.132834   -5.159500    1.768360
H       0.034696   -5.834516   -0.390133
