25

C      -0.295413    1.503157   -0.490980
C      -0.065391    0.009996   -0.242846
C       0.710211   -0.676060   -1.373948
C       0.932188   -2.170095   -1.134944
C      -0.297159   -3.095962   -1.395272
C       0.365575   -3.637218   -2.698834
C      -0.249531   -3.140729   -4.004642
C       1.695333   -2.936069   -2.266355
O       2.445469   -2.215551   -3.215646
H       0.654977    2.037164   -0.601821
H      -0.874598    1.668755   -1.406495
H      -0.842822    1.966307    0.335951
H       0.482828   -0.126708    0.698526
H      -1.031801   -0.491846   -0.105237
H       0.168597   -0.514268   -2.317790
H       1.685887   -0.186833   -1.494614
H       1.388517   -2.297236   -0.147061
H      -0.439354   -3.860316   -0.627682
H      -1.251728   -2.579516   -1.538925
H       0.448646   -4.727654   -2.742985
H      -0.419221   -2.057347   -4.000103
H       0.394388   -3.375520   -4.858368
H      -1.222872   -3.612576   -4.175115
H       2.398958   -3.658361   -1.843263
H       1.868655   -1.564600   -3.627536
