17

C       0.130049    1.499052    0.143432
C       0.049359    0.053186   -0.000271
C      -0.018069   -1.141864   -0.118880
C      -0.110041   -2.583466   -0.259359
C      -1.499406   -3.153474    0.016285
O      -2.465522   -2.503525    0.326276
C      -1.614261   -4.692786   -0.129664
C      -2.976678   -5.280109    0.137450
O      -0.640541   -5.338292   -0.441031
H       0.856281    1.783171    0.912907
H       0.436036    1.976290   -0.794034
H      -0.839490    1.920872    0.429864
H       0.183751   -2.917058   -1.264140
H       0.592280   -3.105756    0.404825
H      -3.714806   -4.834852   -0.537187
H      -2.943362   -6.361780    0.006999
H      -3.301451   -5.025758    1.151378
