18

O      -0.182441    1.332064   -0.271068
C      -0.068519   -0.058872   -0.110762
C       0.368931   -0.559059    1.333778
C      -1.010139   -1.202797    1.469229
O      -1.981593   -0.156476    1.281409
C      -1.417059   -0.784645    0.119347
C       0.765905   -0.614052   -1.238293
C       0.676383   -0.029828   -2.598577
N       1.885563    0.169980   -1.775879
H      -0.845363    1.619722    0.369893
H       1.189324   -1.279435    1.292906
H       0.598757    0.225791    2.058055
H      -1.322009   -2.058769    2.054798
H      -2.104372   -1.215661   -0.599968
H       0.976217   -1.677400   -1.141098
H       0.813423   -0.665463   -3.468755
H       0.009207    0.814732   -2.736242
H       1.839035    1.102014   -1.368144
