18

C      -0.217540    1.538003    0.095113
C       0.018190    0.037754    0.021510
C       0.746265   -0.529410    1.234092
O      -1.306671   -0.571730   -0.077267
C      -1.385438   -1.763081   -0.683713
O      -0.468370   -2.379685   -1.153491
C      -2.849074   -2.213856   -0.689569
C      -3.046069   -3.522078   -1.300631
N      -3.237830   -4.555676   -1.776951
H       0.741107    2.062577    0.140637
H      -0.762039    1.891176   -0.784510
H      -0.794658    1.798259    0.987752
H       0.559905   -0.226517   -0.890544
H       1.731621   -0.062679    1.326542
H       0.183534   -0.328830    2.151232
H       0.888678   -1.607174    1.129964
H      -3.217931   -2.222953    0.341612
H      -3.444140   -1.461355   -1.218378
