21

C      -0.029377    1.508616    0.014371
C      -0.095625    0.018265   -0.031381
C      -0.064022   -0.800983   -1.091058
C       0.032872   -2.225260   -0.575046
C       1.430887   -2.322685    0.108582
O       1.326182   -1.439561    1.228847
C      -0.037666   -0.895458    1.202490
C      -0.342204   -0.310214    2.560070
C      -0.832709   -2.114410    0.704258
H       0.877939    1.844705    0.532357
H      -0.020062    1.936633   -0.992106
H      -0.878262    1.940118    0.559062
H       0.020774   -0.514208   -2.132830
H      -0.187301   -3.028195   -1.278088
H       1.639750   -3.341201    0.461691
H       2.244590   -2.003297   -0.553042
H       0.356992    0.495280    2.803584
H      -1.357773    0.096515    2.585736
H      -0.253925   -1.078792    3.332759
H      -1.879655   -1.894209    0.489539
H      -0.751161   -2.970326    1.381837
