22

C      -0.840056   -0.641370    4.481225
C      -1.220839   -1.700669    3.443823
C      -1.040333   -1.197463    2.009854
N      -1.348080   -2.277344    1.067533
C      -2.665934   -2.459694    0.515586
C      -3.852707   -1.571789    0.814548
C      -1.504282   -2.017653   -0.371255
C      -1.494973   -0.664481   -0.980012
O      -1.809833    0.376784   -0.445690
H      -0.974938   -1.018383    5.499398
H       0.207882   -0.339774    4.374462
H      -1.454374    0.259470    4.375079
H      -0.616076   -2.604350    3.579956
H      -2.265040   -2.004064    3.591653
H      -1.626859   -0.287681    1.842817
H       0.009468   -0.926126    1.846221
H      -2.928117   -3.511708    0.396610
H      -3.607314   -0.511699    0.751577
H      -4.654837   -1.781282    0.099638
H      -4.240979   -1.787431    1.815958
H      -1.038686   -2.769541   -1.006900
H      -1.152715   -0.670071   -2.039757
