20

C       0.249252    1.035026    0.413649
O      -0.064645   -0.279935   -0.016190
C      -1.454409   -0.522646   -0.165830
C      -1.643753   -1.892673   -0.815399
C      -1.748063   -2.868101    0.374799
N      -2.241658   -2.027509    1.452636
C      -2.629270   -2.561493    2.736614
C      -2.098029   -0.687331    1.227288
O      -2.369652    0.203863    2.010794
H       1.338951    1.093508    0.467936
H      -0.113751    1.782828   -0.308275
H      -0.183514    1.260546    1.394163
H      -1.930462    0.299235   -0.717063
H      -2.575930   -1.902674   -1.386758
H      -0.818946   -2.129758   -1.488739
H      -2.440307   -3.695158    0.180067
H      -0.773244   -3.304732    0.634469
H      -1.797862   -3.096998    3.213805
H      -2.923459   -1.721788    3.368668
H      -3.471919   -3.255400    2.634950
