21

O      -0.045295    1.381398    0.137634
C       0.031511   -0.025194   -0.006199
C       0.214600   -0.589740   -1.446137
C      -0.952454   -1.577861   -1.170917
C      -1.370685   -0.682129    0.042728
C      -1.786896   -1.289755    1.342724
C      -1.023086   -1.231502    2.434897
C       0.343895   -0.590783    2.437810
C       0.970182   -0.639937    1.036070
H       0.851781    1.733737    0.124578
H      -0.061021    0.169997   -2.181943
H       1.189509   -1.009963   -1.708614
H      -1.689360   -1.712380   -1.964758
H      -0.602447   -2.561315   -0.847228
H      -2.108182    0.055915   -0.292784
H      -2.759808   -1.775623    1.380665
H      -1.379927   -1.655727    3.370075
H       0.268310    0.454483    2.768349
H       0.994893   -1.094017    3.161534
H       1.172265   -1.684728    0.773122
H       1.937052   -0.118265    1.013304
