18

C      -0.024873    1.433811   -0.024389
N       0.004575   -0.008415    0.012845
C       0.010754   -0.875527   -1.071161
N       0.053332   -2.122511   -0.803877
C       0.100636   -2.214716    0.668267
C       1.355690   -2.991627    1.093943
O       1.351467   -4.289726    0.547356
C       0.072127   -0.780126    1.178805
N       0.116891   -0.412667    2.394360
H       0.878748    1.860602    0.427101
H      -0.082812    1.766407   -1.062579
H      -0.897381    1.823488    0.512919
H      -0.019185   -0.460906   -2.074920
H      -0.776415   -2.768438    1.022078
H       2.247738   -2.420015    0.789957
H       1.371413   -3.083632    2.183262
H       1.167347   -4.181993   -0.394318
H       0.096632    0.603193    2.493794
