24

C      -0.223712    1.506362   -0.163919
C      -0.006531    0.020223    0.016833
C       1.324443   -0.607478   -0.231568
N       0.776846   -0.545663    1.119537
C       1.412954    0.316832    2.073863
C       0.737562    0.487866    3.414210
C       2.027958   -0.298738    3.316488
C       1.965655   -1.801581    3.503332
C       3.288078    0.352244    3.854302
H       0.695389    2.082007   -0.030227
H      -0.596300    1.707278   -1.174037
H      -0.966967    1.885455    0.545849
H      -0.888526   -0.578646   -0.209021
H       1.410705   -1.597821   -0.672153
H       2.145508    0.067241   -0.475031
H       1.938117    1.190064    1.680352
H       0.752008    1.468092    3.879798
H      -0.179018   -0.072372    3.564821
H       1.082139   -2.221040    3.019427
H       2.847756   -2.286535    3.067883
H       1.940197   -2.058360    4.568953
H       3.380435    0.194978    4.935703
H       4.183313   -0.069131    3.381270
H       3.292693    1.432633    3.676404
