13

N      -0.101592    1.302232    0.010012
N       1.061901    1.956048    0.002742
H       0.953071    2.959832    0.009448
C       2.306550    1.421239   -0.012017
C       2.491430    0.055817   -0.021489
C       1.326773   -0.714907   -0.014871
N       1.093949   -2.025056   -0.020089
C      -0.277631   -2.070656   -0.007421
N      -0.962992   -0.927410    0.005523
C       0.037157   -0.007505    0.001293
H       3.114974    2.140827   -0.015567
H       3.486326   -0.370720   -0.033281
H      -0.786949   -3.027812   -0.008039
