17

N       0.042914    1.237804    0.315768
C       0.008236    0.021383    0.032391
O       1.048194   -0.870086   -0.325350
C       0.041172   -1.792551   -0.908809
C      -0.333466   -3.270638   -0.654996
C      -1.677087   -2.950425    0.122051
C      -1.100004   -2.023514    1.203111
C      -0.996201   -1.110814   -0.046887
N      -2.313454   -1.680456   -0.454562
H       0.994966    1.605507    0.273683
H      -0.024622   -1.539294   -1.970639
H      -0.468719   -3.808623   -1.596360
H       0.350727   -3.843387   -0.025591
H      -2.358340   -3.773719    0.334983
H      -1.853067   -1.639663    1.889635
H      -0.180694   -2.313099    1.711286
H      -2.424695   -1.696855   -1.469412
