17

O       0.027267    1.334872   -0.087620
N       0.027095   -0.043602   -0.057418
C      -1.123704   -0.599544    0.030845
C      -1.128043   -2.109711    0.041819
C      -2.195496   -2.629223   -0.928360
C      -3.567106   -2.114458   -0.499912
N      -3.531378   -0.677951   -0.258961
C      -2.458203    0.104854    0.098738
O      -2.606858    1.266508    0.424513
H       0.966921    1.530932   -0.180996
H      -0.128631   -2.468506   -0.213311
H      -1.358273   -2.472003    1.054319
H      -1.968805   -2.285468   -1.944007
H      -2.208873   -3.723079   -0.944708
H      -4.315515   -2.321272   -1.272810
H      -3.888820   -2.647367    0.408766
H      -4.412202   -0.195349   -0.148437
