16

O      -0.004566    1.369994    0.056625
C       0.027379   -0.004234    0.020424
C       0.657730   -0.954023   -1.130929
C      -0.040996   -1.863437   -0.097518
C       0.606508   -0.997558    1.046254
N      -0.578969   -3.172459    0.220445
C      -1.664210   -2.845316    0.816625
O      -2.063518   -1.524205    0.880538
C      -1.219781   -0.905232   -0.122388
H       0.882957    1.696336    0.241627
H       0.205861   -0.887403   -2.122855
H       1.748590   -0.970610   -1.171630
H       1.694447   -1.050222    1.127014
H       0.115741   -1.041051    2.018727
H      -2.335749   -3.532112    1.319400
H      -1.804136   -0.789474   -1.039207
