16

C      -0.088599    1.643148    0.072289
C       0.040614    0.132172    0.088909
C       1.122701   -0.663653   -0.696851
C       2.224951   -0.184803    0.276276
C       0.982127   -0.639727    1.086083
O       0.871364   -1.818938    0.202241
C       0.802862   -0.833143    2.555102
O       1.055226    0.019482    3.368521
H       0.871343    2.161495    0.122788
H      -0.596256    1.966042   -0.843113
H      -0.693339    1.980564    0.920002
H      -0.930915   -0.365018    0.025162
H       1.187275   -0.875387   -1.764228
H       3.082539   -0.852283    0.360950
H       2.503542    0.868272    0.293774
H       0.393615   -1.828173    2.837634
