20

C       0.094389    1.485655   -0.080076
C      -0.013487   -0.050350   -0.076410
C      -1.390502   -0.525428   -0.023538
C      -2.545453   -0.874879    0.021427
C      -3.874709   -1.383924    0.072273
C      -4.076955   -2.885014    0.044532
C      -4.192376   -3.476121    1.460490
N      -4.823085   -0.515722    0.165321
O      -6.076458   -1.134743    0.232968
H       1.143784    1.792230   -0.118440
H      -0.421931    1.908482   -0.945796
H      -0.357476    1.908037    0.821140
H       0.476119   -0.456909   -0.971080
H       0.542031   -0.456903    0.779019
H      -4.988408   -3.101564   -0.518798
H      -3.233842   -3.339296   -0.482729
H      -4.325467   -4.561064    1.412019
H      -3.291745   -3.270432    2.046969
H      -5.049563   -3.047817    1.985755
H      -6.670878   -0.378012    0.270522
