13

C      -0.027488    1.496281    0.052816
C      -0.009140    0.012794    0.002569
N      -0.042212   -0.750550   -1.068553
N      -0.009344   -2.101841   -0.721456
C       0.043622   -2.085939    0.583266
N       0.100062   -2.865810    1.701050
N       0.134828   -2.077455    2.810090
N       0.103769   -0.845689    2.469294
N       0.047341   -0.824017    1.101120
H       0.874587    1.892279    0.531054
H      -0.080805    1.874174   -0.968887
H      -0.891208    1.867476    0.614395
H       0.118848   -3.866004    1.799892
