19

O      -0.092021    1.290843    0.184731
N       0.015602   -0.110152    0.188220
C      -1.112441   -0.668416   -0.000513
C      -2.474550   -0.039495   -0.175193
C      -3.391772   -1.230324   -0.536831
C      -2.725887   -2.450508    0.133442
C      -1.238565   -2.158993   -0.015513
C      -0.304232   -2.973496   -0.850026
N      -0.232682   -3.013006    0.616156
H       0.817593    1.567424    0.338606
H      -2.773270    0.428075    0.771886
H      -2.460333    0.759263   -0.921260
H      -4.424968   -1.079768   -0.215783
H      -3.404126   -1.367659   -1.623701
H      -2.981468   -2.490734    1.199430
H      -3.018552   -3.404169   -0.311502
H      -0.665118   -3.886689   -1.317357
H       0.469398   -2.440543   -1.395637
H       0.532994   -2.417744    0.930023
