18

N      -0.043915    1.354894    0.000340
C       0.065676   -0.006951   -0.030782
O       1.132517   -0.588529   -0.076821
C      -1.214998   -0.698341   -0.016878
C      -2.247895   -1.320376   -0.005623
C      -3.478694   -2.098815    0.006529
C      -3.233247   -3.619713    0.016116
C      -4.537211   -4.407262    0.026581
O      -4.207025   -5.785045    0.036999
H       0.802077    1.898137    0.053811
H      -0.933296    1.807522    0.116642
H      -4.075140   -1.812269    0.883538
H      -4.082835   -1.824714   -0.869228
H      -2.647842   -3.906180   -0.863023
H      -2.641357   -3.894141    0.894796
H      -5.132346   -4.130237    0.913188
H      -5.137647   -4.144836   -0.860850
H      -5.023666   -6.292574    0.042029
