14

O       0.007070    0.071999   -0.276778
C       0.059353    1.262739   -0.052329
N       1.191791    1.938317    0.272468
C       2.592736    1.517980    0.075072
C       2.969565    3.001346   -0.081586
C       2.150424    3.647997   -1.171426
C       1.506907    3.356233    0.156552
H      -0.829585    1.927749   -0.047552
H       3.008893    1.046308    0.969849
H       2.746881    0.864028   -0.788683
H       3.849474    3.463986    0.341479
H       2.379918    4.693146   -1.354338
H       1.854761    3.084043   -2.052140
H       1.052888    4.094949    0.805363
