17

O      -0.034756    1.311179   -0.014590
N       0.022603   -0.088349   -0.115436
C      -1.124165   -0.614007    0.054952
C      -2.448923    0.034502    0.382359
C      -3.314026   -1.086403    1.040001
O      -4.663845   -1.083285    0.626025
C      -2.599825   -2.389994    0.690912
N      -2.468091   -2.510964   -0.773040
C      -1.294331   -2.088378    0.051799
H       0.889039    1.560695   -0.123819
H      -2.315571    0.906271    1.025653
H      -2.938505    0.384846   -0.532272
H      -3.334937   -0.956254    2.126520
H      -4.653812   -1.363596   -0.298618
H      -2.765587   -3.279447    1.289057
H      -2.344542   -3.489531   -1.021977
H      -0.429639   -2.737209    0.115515
