22

C       0.997938   -0.101601    1.273610
C       0.063943    0.071900    0.069750
C       0.648545   -0.489883   -1.230962
C       0.730834   -2.015197   -1.318267
C      -0.514104   -2.506163   -1.977385
C      -1.372531   -1.291843   -2.310200
C      -0.195160   -0.313831   -2.522712
C       0.653890   -1.145812   -3.501347
N       0.756123   -2.423336   -2.747329
H       1.193817   -1.158383    1.482176
H       1.963832    0.385259    1.098471
H       0.563048    0.337971    2.176510
H      -0.897963   -0.404632    0.289527
H      -0.145483    1.140145   -0.071008
H       1.642593   -0.046160   -1.380004
H       1.317136   -2.614471   -0.632363
H      -0.925823   -3.495130   -1.817015
H      -1.968606   -1.430467   -3.218086
H      -2.046203   -1.008711   -1.497647
H      -0.442523    0.707061   -2.811097
H       0.170352   -1.320447   -4.467467
H       1.653044   -0.734894   -3.675103
