17

C      -0.255291    1.607098    0.276120
C       0.177091    0.194845   -0.133373
C       0.926244   -0.500602    0.982001
N       0.138929   -1.132168    2.053326
C       0.991305   -1.969694    1.210820
C       0.308741   -3.008828    0.356472
F      -0.922986   -2.664107   -0.026457
F       1.031100   -3.249767   -0.752449
F       0.212121   -4.171434    1.024054
H       0.607397    2.230775    0.536942
H      -0.791177    2.104667   -0.537288
H      -0.918621    1.569205    1.145762
H      -0.696217   -0.397157   -0.411235
H       0.828978    0.241203   -1.014867
H       1.830096    0.025091    1.294063
H       0.562124   -0.998294    2.966771
H       1.916477   -2.368181    1.621812
