18

N      -0.074422    1.249675    0.675895
C      -0.058332   -0.066521    0.172058
C      -0.990760   -0.655261   -0.656708
N      -0.614733   -1.971082   -0.836096
C       0.535070   -2.236601   -0.139514
C       0.904898   -1.064315    0.495841
C       1.125019   -3.587070   -0.142906
C       2.199636   -3.953711    0.809391
N       0.861241   -4.540436    0.975270
H       0.859161    1.628204    0.777243
H      -0.612352    1.878238    0.092512
H      -1.871975   -0.252591   -1.128963
H      -1.134484   -2.653376   -1.359376
H       1.782673   -0.925170    1.108823
H       1.119575   -4.089434   -1.109053
H       2.973624   -4.651123    0.501879
H       2.528712   -3.200486    1.519256
H       0.372530   -4.032341    1.710316
