19

C      -0.002181    1.572701    0.043346
C       0.021212    0.039556    0.054898
C       0.807568   -0.490482    1.256463
O       2.139587   -0.011926    1.143281
C      -1.421672   -0.549049    0.043699
C      -2.161582   -0.078070   -1.215527
O      -3.097405    0.673060   -1.212109
C      -1.448423   -2.008705    0.044076
C      -1.499080   -3.208434   -0.024299
H       1.018897    1.954240    0.095536
H      -0.476858    1.970014   -0.858049
H      -0.556271    1.959922    0.906579
H       0.536780   -0.319842   -0.845389
H       0.333180   -0.136032    2.187381
H       0.778336   -1.588284    1.263055
H       2.642187   -0.340863    1.893809
H      -1.979295   -0.157617    0.903186
H      -1.745574   -0.500007   -2.157290
H      -1.541836   -4.269190   -0.059396
