19

C       0.721202    1.254864    0.318128
C      -0.042497   -0.044588    0.073053
C       0.331043   -0.740764   -1.242048
C       1.334463   -1.809136   -0.815336
O       2.109447   -2.406788   -1.514182
C       1.187377   -1.976297    0.694771
C       2.509723   -1.789520    1.449516
O       2.295356   -1.825599    2.842427
O       0.227495   -1.013134    1.114651
H       1.801326    1.114550    0.203430
H       0.402741    2.023632   -0.393934
H       0.526929    1.621371    1.329739
H      -1.116736    0.155239    0.131724
H      -0.530624   -1.254103   -1.684618
H       0.754807   -0.082262   -2.002662
H       0.795086   -2.976259    0.924737
H       3.189490   -2.606698    1.191632
H       2.985605   -0.845922    1.136959
H       1.565106   -1.218116    3.013891
