23

C      -0.031112    1.367449   -0.541376
C      -0.221772   -0.142872   -0.437842
C      -1.476553   -0.556319    0.314979
O      -2.216153    0.254892    0.826264
C      -1.789312   -2.058373    0.377046
C      -2.210702   -2.463038    1.796358
C      -2.889648   -2.351516   -0.636932
C      -2.571334   -2.630133   -2.085263
C      -3.067604   -3.740873   -1.191859
H       0.891244    1.607278   -1.077856
H      -0.869020    1.830528   -1.069071
H       0.015702    1.822262    0.451273
H      -0.258548   -0.613992   -1.430030
H       0.631853   -0.619425    0.066371
H      -0.893549   -2.619581    0.081474
H      -3.052715   -1.848386    2.124136
H      -2.509308   -3.514813    1.821590
H      -1.393654   -2.320054    2.510842
H      -3.799275   -1.787484   -0.449134
H      -3.237928   -2.238536   -2.845492
H      -1.528232   -2.657712   -2.384513
H      -2.354194   -4.501476   -0.890708
H      -4.075527   -4.112843   -1.338990
