18

C       0.002247    1.353085   -0.101935
N       0.030700   -0.088814   -0.027449
C      -1.079189   -0.916514   -0.464838
C      -0.698573   -2.316648    0.051834
C       0.848091   -2.290330    0.077549
C       1.449181   -2.758767   -1.164942
C       1.918374   -3.136432   -2.205140
C       1.167404   -0.783098    0.280900
O       2.225366   -0.311805    0.632791
H       0.963756    1.722146    0.258657
H      -0.151084    1.695442   -1.133664
H      -0.802197    1.762552    0.520352
H      -2.022523   -0.557940   -0.038140
H      -1.180440   -0.897173   -1.560016
H      -1.072585   -2.447046    1.071100
H      -1.099541   -3.117592   -0.569493
H       1.262128   -2.849860    0.920946
H       2.352728   -3.471995   -3.114126
