22

C      -0.382409    1.408503   -0.460244
O      -0.540096    0.024892   -0.657844
C      -0.969169   -0.649937    0.508245
C      -1.038828   -2.115202    0.214951
C       0.058768   -2.958378   -0.452131
C      -1.062573   -3.801827   -1.158703
C      -1.089740   -5.313740   -0.971206
C      -2.114887   -2.946250   -0.426156
N      -1.923899   -2.944620    1.022728
H      -0.046271    1.839050   -1.406786
H      -1.328366    1.890967   -0.166703
H       0.367188    1.628901    0.316901
H      -0.264219   -0.459290    1.338135
H      -1.959070   -0.295279    0.836132
H       0.665739   -2.389488   -1.157990
H       0.720138   -3.495949    0.237643
H      -1.075756   -3.562697   -2.226697
H      -1.107384   -5.593721    0.088544
H      -1.973273   -5.755651   -1.444734
H      -0.203263   -5.779686   -1.414964
H      -3.089963   -2.658123   -0.804498
H      -1.468777   -3.786611    1.370776
