16

O      -0.116560    1.435345    0.410767
C       0.001868    0.073617    0.113297
C      -0.627044   -0.942357    1.029056
C      -1.253302   -0.632885   -0.318609
C      -2.555792    0.131524   -0.394468
C      -3.757511   -0.713126   -0.024014
F      -3.728556   -1.098906    1.263331
F      -4.901245   -0.032893   -0.208142
F      -3.832577   -1.829645   -0.769689
H       0.424260    1.619068    1.185590
H       0.924363   -0.199705   -0.398006
H      -0.140925   -1.901058    1.170872
H      -1.141873   -0.559417    1.903130
H      -1.129755   -1.388307   -1.087718
H      -2.533282    0.996745    0.271386
H      -2.727733    0.505829   -1.408832
