18

C      -0.147061    1.427022   -0.054564
C       0.065019   -0.069958   -0.046650
C       1.467217   -0.649296   -0.097876
C       0.665082   -0.724899    1.166018
O       1.012142    0.004258    2.355455
C       0.562028   -1.086198    3.204475
C       0.205596   -1.880823    1.969773
N      -0.268046   -3.011761    1.664483
O      -0.559236   -3.760071    2.819585
H       0.608194    1.931339    0.554228
H      -0.090395    1.825373   -1.073053
H      -1.128356    1.686307    0.355934
H      -0.705462   -0.657755   -0.539547
H       1.644613   -1.570089   -0.643220
H       2.295721    0.052385   -0.089620
H       1.370064   -1.498731    3.818902
H      -0.280058   -0.799555    3.844638
H      -0.902438   -4.580875    2.450416
