17

O       0.122019    1.386725    0.369208
C       0.085765    0.025015   -0.013108
C      -1.310285   -0.527020   -0.049565
C      -2.083175   -0.980002    1.151930
C      -1.718868   -1.973142    0.059835
C      -2.733934   -2.194883   -1.038127
C      -2.941822   -0.808924   -1.661310
O      -3.705483   -0.489225   -2.520995
O      -2.093870    0.089141   -1.067669
H      -0.413105    1.874292   -0.266926
H       0.559088   -0.130537   -0.995330
H       0.670312   -0.525457    0.730693
H      -1.544449   -1.056071    2.089815
H      -3.115956   -0.658732    1.244140
H      -0.988337   -2.743563    0.275023
H      -2.367995   -2.872179   -1.816257
H      -3.699770   -2.581783   -0.701040
