15

O       0.360499    0.932057    0.873268
C       0.067097    0.017789   -0.170245
C      -1.370782   -0.415949   -0.175628
C      -2.247693   -0.322960    0.865118
O      -3.466190   -0.807080    0.523961
C      -3.377352   -1.231649   -0.775694
C      -2.111096   -1.008234   -1.245467
C      -4.525388   -1.782049   -1.371068
C      -5.502017   -2.256311   -1.892824
H      -0.186011    1.712905    0.733522
H       0.336214    0.425486   -1.157522
H       0.726699   -0.840938    0.001972
H      -2.149628    0.048221    1.871248
H      -1.759197   -1.239949   -2.238659
H      -6.363108   -2.674763   -2.352088
