17

C       0.221509    1.442017    0.116942
C      -0.048917   -0.046304   -0.131555
N       0.681032   -0.540698   -1.290545
C       1.796580   -1.102819   -1.112435
N       2.615930   -1.621558   -2.105634
C       3.710382   -2.233866   -1.519513
O       4.599131   -2.833757   -2.334488
C       3.622386   -2.053680   -0.194792
O       2.449749   -1.336643    0.079043
H       1.272367    1.607360    0.375148
H      -0.003070    2.027172   -0.779876
H      -0.396226    1.817383    0.940010
H       0.183514   -0.616425    0.779115
H      -1.117953   -0.184885   -0.332122
H       2.317585   -1.732771   -3.058388
H       5.300736   -3.224371   -1.803204
H       4.253503   -2.306465    0.636499
