17

C       0.012826    1.459653    0.035892
N      -0.023254    0.007567    0.011929
C      -1.205102   -0.697004    0.024913
C      -1.206677   -2.044268    0.001934
C      -2.448677   -2.874212    0.014100
C       0.093882   -2.700943   -0.036848
N       0.204695   -3.977148   -0.061101
N       1.251233   -1.866167   -0.046961
N       1.182267   -0.605860   -0.023973
H       1.060665    1.757084    0.019124
H      -0.498331    1.875959   -0.838375
H      -0.461192    1.845594    0.944345
H      -2.107873   -0.096874    0.054289
H      -2.480205   -3.519690   -0.869984
H      -2.443430   -3.549146    0.876474
H      -3.349973   -2.255645    0.043532
H       1.197909   -4.219538   -0.086255
