18

O      -0.116229    1.454763    0.113499
C      -0.028645    0.045440   -0.001424
C       0.753584   -0.538258    1.185765
N       0.628603   -1.991491    1.254139
C      -0.451510   -2.704764    0.832865
O      -0.681879   -3.846464    1.200874
C      -1.364657   -2.040346   -0.206334
O      -2.635381   -2.629712   -0.144715
C      -1.441474   -0.526054   -0.022480
H       0.760178    1.828527   -0.023840
H       0.481293   -0.236877   -0.936548
H       1.816073   -0.280280    1.101600
H       0.369901   -0.064736    2.100510
H       1.187919   -2.474420    1.944475
H      -0.890466   -2.246588   -1.185197
H      -2.484554   -3.494897    0.269505
H      -1.952332   -0.292441    0.918756
H      -2.019692   -0.073709   -0.832436
