18

C       0.171835    1.631708   -0.243498
C       0.142798    0.120266   -0.074928
O      -1.165300   -0.327554    0.225871
C       0.688263   -0.769431   -1.195163
C       2.143357   -0.622578   -1.359772
N       1.651490   -1.508780   -0.282961
C       1.217593   -0.596820    0.831469
C       2.312023    0.174490    1.522487
O       2.115895    1.159538    2.191115
H       1.147397    1.995168   -0.574421
H      -0.581209    1.928519   -0.979806
H      -0.045642    2.125537    0.709205
H      -1.509616    0.218628    0.941159
H       0.050456   -1.295310   -1.896793
H       2.617313   -1.170754   -2.167488
H       2.638434    0.313225   -1.107345
H       0.691649   -1.190247    1.586674
H       3.335214   -0.244580    1.385519
