14

O      -0.046245    1.391202   -0.105930
C       0.021853    0.022673   -0.003809
C       0.056982   -0.794513   -1.093230
O       0.083187   -0.526847   -2.419070
N       0.042612   -2.113398   -0.653945
C       0.062570   -3.246540   -1.459898
O       0.062198   -4.370313   -1.026652
C       0.009665   -2.111763    0.745203
C      -0.012281   -0.817307    1.165717
H       0.587359    1.785044    0.502718
H       0.085250    0.434074   -2.509174
H       0.078719   -2.990396   -2.530492
H       0.001409   -3.051220    1.268388
H      -0.051950   -0.481095    2.190824
