18

C      -0.079140    1.479933   -0.210935
C      -0.033132    0.049227    0.276684
O       0.929416   -0.440630    0.806268
C      -1.334201   -0.793546    0.084473
C      -1.734346   -0.779764   -1.326424
N      -2.026960   -0.767413   -2.444888
C      -1.191128   -2.205785    0.620937
C      -1.507166   -2.485365    2.064970
C      -2.417236   -3.003973    0.979712
H       0.859141    1.979308    0.031044
H      -0.246278    1.504025   -1.292673
H      -0.916164    2.015396    0.251211
H      -2.124314   -0.269187    0.641950
H      -0.354875   -2.746135    0.192665
H      -0.871380   -3.185583    2.593617
H      -1.864239   -1.664224    2.678251
H      -3.387491   -2.533269    0.859730
H      -2.412232   -4.065102    0.759521
