18

C      -0.013722    1.555788    0.015548
C       0.029699    0.025840   -0.005424
C       0.740510   -0.560570    1.228849
C       0.764216   -2.066296    1.243798
C      -0.519238   -2.838724    1.401423
N       1.911538   -2.615858    1.112319
O       1.817390   -4.020478    1.117808
H       0.995974    1.979812    0.043618
H      -0.516938    1.951083   -0.872202
H      -0.551314    1.925051    0.896096
H      -0.992277   -0.368522   -0.066868
H       0.547642   -0.320513   -0.907862
H       1.772199   -0.198098    1.268126
H       0.232065   -0.202671    2.135731
H      -0.773504   -3.362897    0.473502
H      -0.404244   -3.608461    2.169874
H      -1.349809   -2.181902    1.668088
H       2.740710   -4.282145    1.042175
