19

O      -0.479833    0.386117   -0.939273
C      -0.242494    1.364790   -0.295261
C      -1.067625    2.281984    0.627257
C       0.062776    3.342840    0.487695
C       1.008161    2.279409   -0.160765
C       2.121076    1.682452    0.732484
C       3.394483    2.293230    0.126220
C       3.015371    2.354004   -1.352755
O       1.624042    2.677386   -1.366601
H      -2.062387    2.547798    0.263104
H      -1.167421    1.861274    1.633174
H      -0.184920    4.118826   -0.239053
H       0.420004    3.807592    1.408398
H       1.980969    1.913480    1.790554
H       2.138396    0.592858    0.621839
H       3.563913    3.302087    0.516387
H       4.289113    1.695636    0.316342
H       3.545739    3.126017   -1.917562
H       3.184290    1.385551   -1.845934
