19

C       0.050587    1.500480   -0.031466
C       0.013532    0.007996   -0.035466
N      -0.011763   -0.743747   -1.116995
C      -0.030370   -2.043607   -0.668460
C      -0.015275   -2.078156    0.697482
N       0.017153   -0.757266    1.104960
C      -0.014452   -0.295420    2.479215
C      -1.438369   -0.201092    3.031265
O      -1.323802    0.246666    4.368736
H       0.951964    1.892008    0.455006
H       0.046954    1.839878   -1.067889
H      -0.814546    1.940731    0.477974
H      -0.046751   -2.876496   -1.354965
H      -0.012156   -2.885981    1.411183
H       0.567910   -0.979957    3.102541
H       0.461760    0.686083    2.542252
H      -2.026190    0.494127    2.412175
H      -1.919843   -1.188788    2.965330
H      -2.205802    0.315221    4.744852
