16

C      -0.002255    1.413824   -0.175944
O       1.283134    1.977151   -0.041440
C       1.929271    1.565777    1.143109
C       1.181555    1.532229    2.475929
C       0.356729    0.289095    2.479980
C       0.612429   -0.418911    1.149582
O      -0.021291    0.011172   -0.035030
C       2.065654    0.046740    1.348772
N       1.809525    0.221640    2.870269
H      -0.686501    1.870209    0.556578
H      -0.336898    1.632550   -1.191147
H       2.873459    2.107341    1.207576
H       1.034357    2.329634    3.194019
H      -0.433037    0.118064    3.201225
H       0.480617   -1.499049    1.219342
H       2.919517   -0.520974    0.988599
