17

O       0.184605    1.376713   -0.131440
C       0.033270   -0.016227    0.081811
C      -1.412153   -0.433483    0.052334
C      -2.458211   -0.100484    1.116693
C      -2.938916   -1.565852    0.956483
N      -1.854746   -1.875206   -0.053306
C      -2.057017   -0.942200   -1.196132
C      -3.364850   -0.519420   -1.625709
N      -4.414547   -0.177913   -1.972413
H      -0.144453    1.582142   -1.013097
H       0.606416   -0.618482   -0.639661
H       0.450333   -0.212918    1.075152
H      -2.008756    0.101860    2.090094
H      -3.163080    0.697864    0.876883
H      -2.779863   -2.185919    1.839159
H      -3.950572   -1.726713    0.577045
H      -1.387775   -1.180957   -2.018299
