21

O       0.115230    1.351415   -0.116907
C       0.049049   -0.067049   -0.178647
C      -1.407834   -0.487068    0.055698
C      -2.315078    0.050083   -1.021713
C      -3.362865   -0.605543   -1.518263
C      -3.791707   -1.977655   -1.072670
C      -2.707817   -2.738888   -0.328180
C      -1.348869   -2.917693   -0.957181
C      -1.518516   -1.994247    0.229767
H       0.999841    1.623912   -0.375897
H       0.386883   -0.441736   -1.156785
H       0.688400   -0.526814    0.591901
H      -1.701408   -0.013303    1.005709
H      -2.075801    1.048468   -1.375380
H      -3.975769   -0.131534   -2.281568
H      -4.676177   -1.881992   -0.424875
H      -4.132166   -2.560287   -1.940277
H      -3.071472   -3.573757    0.263675
H      -0.828132   -3.857379   -0.809395
H      -1.188014   -2.463085   -1.929414
H      -1.120217   -2.360354    1.172229
