20

C       0.062827    1.510122    0.084100
C       0.064410    0.020517   -0.012941
C      -0.057938   -0.764794   -1.087136
C      -0.061895   -2.185723   -0.646943
N       0.513283   -2.263752    0.720745
C       0.031372   -0.888643    1.198341
C      -1.415520   -1.459727    1.354796
C      -0.937459   -2.629132    0.503597
C      -1.452974   -4.033774    0.618189
H       0.953274    1.872943    0.613040
H       0.038312    1.976758   -0.904244
H      -0.804174    1.874653    0.650562
H      -0.161571   -0.450457   -2.117996
H       0.263423   -2.970176   -1.324845
H       0.532458   -0.528128    2.097210
H      -1.599226   -1.797329    2.377880
H      -2.257534   -0.849128    1.013206
H      -2.456700   -4.115371    0.184560
H      -0.799133   -4.734361    0.090004
H      -1.511065   -4.350470    1.665483
