14

N       0.090370    1.282781    0.007021
C       0.011272    0.019550    0.004380
N      -1.211422   -0.665496    0.011964
C      -1.271206   -2.073308    0.008588
N      -0.233085   -2.807366   -0.001481
C      -2.707499   -2.429503    0.018790
C      -3.436022   -1.311934    0.027516
C      -2.526559   -0.123510    0.023664
O      -2.835562    1.035863    0.029299
H       1.072207    1.557326    0.000205
H       0.839565   -0.692680   -0.003827
H      -0.491085   -3.793190   -0.002155
H      -3.046165   -3.456658    0.018625
H      -4.509861   -1.194688    0.036206
