18

C      -0.044238    1.552131   -0.043195
C       0.023947    0.029306    0.043954
C       0.760780   -0.446922    1.280678
O       1.243541    0.276465    2.124009
N       0.866006   -1.829640    1.418543
C       1.510293   -2.606837    2.491870
C       1.088409   -3.896093    1.730969
C       0.458131   -2.955914    0.687673
O      -0.143531   -3.064844   -0.342538
H       0.956873    1.989289   -0.074498
H      -0.583577    1.855477   -0.944482
H      -0.556125    1.972947    0.825763
H      -0.975686   -0.421746    0.048712
H       0.514388   -0.406443   -0.834676
H       2.584537   -2.426366    2.564601
H       1.044978   -2.455472    3.467795
H       1.904500   -4.506739    1.341231
H       0.367896   -4.536044    2.242933
