16

O      -0.373981    0.168288    0.368604
C      -0.066604    1.330653    0.397261
C       1.256897    1.912137   -0.031167
O       2.277108    1.001619   -0.481762
C       2.585098    1.852709   -1.619176
C       1.912503    1.468431   -2.944743
C       0.594478    0.866865   -2.713690
N       0.692965    2.345367   -2.617056
C       1.384711    2.752364   -1.330938
H      -0.761431    2.112728    0.784082
H       1.616326    2.510057    0.825759
H       3.627081    2.173938   -1.641319
H       2.395120    1.516416   -3.915390
H       0.028395    0.576398   -3.593289
H       0.432499    0.251021   -1.838533
H       1.420016    3.836198   -1.244749
