18

C      -0.163413    1.447777   -0.515910
C       0.061014    0.141476    0.256881
C      -1.241762   -0.559464    0.555488
O      -1.898163   -1.230426   -0.529779
C      -1.450714   -2.017765    0.581327
C      -0.382491   -3.055145    0.303337
C      -0.938679   -4.212988   -0.506553
O      -0.817886   -5.372949   -0.209072
H       0.786182    1.948674   -0.724213
H      -0.662260    1.249309   -1.469031
H      -0.790995    2.141854    0.053311
H       0.719890   -0.515515   -0.318307
H       0.567372    0.349882    1.208293
H      -1.928923    0.029874    1.168542
H      -2.265635   -2.384034    1.209660
H       0.428499   -2.607819   -0.282925
H       0.034791   -3.448659    1.235266
H      -1.480793   -3.903715   -1.427206
