15

C      -0.075333    1.559411    0.067331
C       0.023990    0.035782    0.003979
C       0.752879   -0.490236   -1.269090
N       2.121010    0.034019   -1.313757
C       0.718240   -1.977151   -1.249156
N       0.756033   -3.130496   -1.187666
C       0.041385   -0.030865   -2.481320
N      -0.521080    0.335293   -3.420470
H       0.912764    2.021857    0.028649
H      -0.667821    1.951920   -0.764009
H      -0.563688    1.856637    0.999232
H       0.580308   -0.356419    0.863093
H      -0.968461   -0.423044    0.035557
H       2.635703   -0.313172   -0.509099
H       2.601671   -0.295339   -2.145714
