19

C       0.282034    1.486222   -0.182968
C       0.029520    0.017379    0.090170
O       0.809186   -0.855375   -0.764670
C       1.319275   -1.606940    0.356502
C       2.846639   -1.701552    0.378364
C       3.371443   -2.555922   -0.678499
C       3.787560   -3.271351   -1.549433
C       0.639963   -0.636401    1.362810
O       1.457900    0.144204    2.196700
H       1.341416    1.745915   -0.083204
H      -0.016250    1.726584   -1.207669
H      -0.297224    2.112086    0.502991
H      -1.042293   -0.201339   -0.014884
H       0.894344   -2.619085    0.375820
H       3.276484   -0.696750    0.285911
H       3.151578   -2.083813    1.361028
H       4.160989   -3.897259   -2.321326
H      -0.084568   -1.110603    2.027134
H       2.043417    0.680047    1.652033
