25

C      -0.129224    1.546303   -0.181206
C       0.042613    0.026000   -0.104616
C       0.707619   -0.464463    1.196011
C       0.603478   -2.000851    1.332184
C       0.803473   -2.543376    2.755515
C       2.200993   -2.373137    3.368141
C       2.639867   -0.912178    3.588813
C       2.968994   -0.165685    2.317428
C       2.140227    0.021346    1.290887
H       0.829017    2.070538   -0.108627
H      -0.598498    1.843325   -1.124377
H      -0.763259    1.909505    0.635563
H      -0.941695   -0.448172   -0.198776
H       0.633529   -0.325381   -0.961789
H       0.139145   -0.031018    2.035572
H      -0.395040   -2.308605    0.995804
H       1.319999   -2.472949    0.647342
H       0.067440   -2.065810    3.418764
H       0.555737   -3.612189    2.754418
H       2.212971   -2.888633    4.336573
H       2.944861   -2.877651    2.738346
H       1.845542   -0.386092    4.140053
H       3.515750   -0.901616    4.245784
H       3.977744    0.234332    2.240209
H       2.518642    0.559405    0.423442
