16

C      -0.099558    1.587160   -0.048562
C      -0.008132    0.069679   -0.034422
C      -1.161056   -0.630316   -0.536009
C      -2.127887   -1.207747   -0.957402
C       1.334936   -0.591575   -0.247066
O       2.406930    0.248769   -0.488529
C       0.713944   -0.635830    1.145967
C       1.309030    0.141403    2.190735
N       1.813316    0.754501    3.033056
H       0.828608    2.037267    0.302520
H      -0.288303    1.933097   -1.068263
H      -0.923208    1.922116    0.586979
H      -2.983095   -1.713034   -1.333369
H       1.337915   -1.535400   -0.789847
H       3.158102   -0.035343    0.044970
H       0.289432   -1.580296    1.466685
