18

C       0.494104    1.117014   -0.311667
O      -0.127188    0.316616    0.688785
C       0.601876   -0.725777    1.127959
N       0.125409   -1.486070    2.017131
C       0.910811   -2.600945    2.464529
C       0.192743   -3.978845    2.653703
C       1.436168   -4.716085    2.078257
C       1.913454   -3.353235    1.551804
O       2.634663   -3.012107    0.655836
H       0.732343    0.528469   -1.205465
H      -0.226227    1.892365   -0.574675
H       1.409446    1.589418    0.064329
H       1.581438   -0.841956    0.651960
H       1.426174   -2.343542    3.401916
H      -0.106261   -4.229314    3.671274
H      -0.671506   -4.051877    1.991117
H       2.107343   -5.107195    2.849566
H       1.280158   -5.490141    1.324088
