13

N      -0.051271    1.240405   -0.428691
C       0.032245    0.015200   -0.075370
C       1.251696   -0.700435    0.325976
N       1.294948   -1.934706    0.674940
C       0.077507   -2.606868    0.658233
N      -1.069128   -2.120888    0.332731
N      -1.111185   -0.813992   -0.036108
C      -2.395576   -0.304807   -0.390879
O      -3.391416   -0.966458   -0.373311
H       0.866380    1.682673   -0.398325
H       2.176459   -0.121982    0.319890
H       0.096675   -3.649918    0.950211
H      -2.323926    0.752900   -0.671515
