16

N      -0.003457   -1.150722   -0.380325
C       0.005687   -0.033787   -0.086090
C       0.026468    1.376335    0.296933
C       1.354937    2.057054   -0.042856
O       1.566467    2.181955   -1.464246
C       1.791597    3.610134   -1.381497
C       1.435172    3.578529    0.100625
C       0.710253    4.519651    0.952068
O       2.115150    4.260916    1.122051
H      -0.791996    1.897916   -0.210049
H      -0.149068    1.448197    1.377054
H       2.187581    1.535069    0.446238
H       2.835211    3.879929   -1.582601
H       1.127781    4.172192   -2.047298
H       0.460746    5.508083    0.569495
H       0.071025    4.156069    1.755222
