21

C       0.414146    1.508654    0.715478
O       0.605992    0.296454    0.020187
C       0.596191   -0.827626    0.856862
C      -0.768684   -1.365858    1.376698
C      -0.313772   -2.797672    0.985543
C       0.816564   -2.151755    0.102604
C       0.279555   -3.599215    2.130165
C       0.435530   -5.089671    1.888527
O       0.635328   -3.077936    3.164494
H       1.195236    1.668818    1.475057
H       0.463211    2.316494   -0.018595
H      -0.564571    1.546100    1.216954
H       1.305759   -0.703020    1.687133
H      -1.006483   -1.209313    2.429255
H      -1.588177   -1.020134    0.741319
H      -1.027937   -3.409925    0.429789
H       0.495323   -2.052679   -0.936667
H       1.812962   -2.598921    0.132961
H       0.920931   -5.279181    0.924783
H       1.011655   -5.544346    2.695182
H      -0.554724   -5.558275    1.839986
