16

N      -0.004779   -1.150403    0.021134
C      -0.006834    0.005343   -0.000265
C       0.012587    1.470335   -0.043658
N      -0.276666    2.145924    1.244190
C       0.856592    3.094854    1.054673
C       2.074276    2.723140    1.927318
C       2.484600    1.656018    0.862100
C       1.388072    2.191438   -0.103859
H      -0.630404    1.792836   -0.873612
H      -1.197474    2.563277    1.300084
H       0.579245    4.145083    0.936035
H       2.799754    3.538269    2.002720
H       1.834168    2.358725    2.927838
H       3.501529    1.759979    0.479402
H       2.337967    0.617226    1.165915
H       1.705884    2.552377   -1.079879
