18

C      -0.057819    1.554329    0.084523
C       0.040323    0.044973    0.090602
C      -1.170003   -0.651429   -0.424737
O      -2.165763   -0.098517   -0.823261
C       1.301984   -0.754363   -0.228382
C       2.558689   -0.037074    0.282240
C       1.962837   -0.070066    1.726641
C       0.723068   -0.786282    1.174684
H       0.844967    2.034265    0.465600
H      -0.235869    1.917701   -0.931715
H      -0.903588    1.880996    0.696472
H      -1.095784   -1.765161   -0.419348
H       1.290122   -1.523475   -0.992362
H       3.450211   -0.661387    0.194025
H       2.777191    0.941289   -0.154255
H       2.543027   -0.711596    2.393109
H       1.794459    0.886904    2.227946
H       0.188531   -1.584246    1.677546
