17

O      -0.122761    1.233146   -1.695226
C      -0.018400    1.500574   -0.512236
C      -1.245307    1.542789    0.380895
C      -1.402202    2.803008    1.246529
C      -0.517729    2.837615    2.473773
O      -0.052583    1.592648    2.983325
C       0.925208    2.516918    2.459472
C       1.717103    2.171312    1.255137
C       1.335998    1.757646    0.037744
H      -2.107599    1.430132   -0.279300
H      -1.208755    0.673004    1.046376
H      -1.233816    3.713701    0.657741
H      -2.443420    2.849670    1.585786
H      -0.840201    3.539181    3.245990
H       1.527374    2.966019    3.248453
H       2.786604    2.311278    1.400520
H       2.107300    1.585762   -0.708365
