17

C      -0.017607    1.515305    0.015015
C      -0.006234    0.018203    0.036378
C      -0.027997   -0.809410   -1.060900
N      -0.006918   -2.150358   -0.659212
C       0.026385   -2.146278    0.705185
C       0.029362   -0.843377    1.188427
C       0.067412   -0.953019    2.618100
C       0.085219   -2.292641    2.918677
N       0.060236   -3.039574    1.737110
H       0.870960    1.934834    0.502697
H      -0.043438    1.896405   -1.010374
H      -0.889315    1.922145    0.542319
H      -0.056368   -0.564804   -2.111189
H      -0.023642   -2.942218   -1.274295
H       0.080440   -0.155507    3.345078
H       0.113332   -2.798755    3.870142
H       0.064932   -4.041278    1.683721
