17

O      -0.885958    1.648915    0.413646
C       0.122897    1.008318    0.276341
C       1.503157    1.633690    0.012992
O       2.437169    0.877620   -0.129080
C       1.571493    3.140604   -0.023111
C       1.442731    3.743505    1.423359
C       2.466605    4.851266    1.417735
C       3.235880    4.834671    0.332411
C       2.888181    3.707804   -0.607635
H       0.156176   -0.101048    0.318480
H       0.707489    3.490257   -0.595532
H       0.423000    4.086323    1.621226
H       1.675804    3.003817    2.202808
H       2.560980    5.545199    2.245641
H       4.053378    5.519216    0.135577
H       3.669993    2.938154   -0.618440
H       2.761959    4.040708   -1.643910
