17

C      -0.325881    1.502770    0.221853
C       0.206457    0.097348   -0.061695
N       0.771374   -0.539891    1.118487
C       0.142668   -1.157041    2.149326
C       1.152367   -1.515060    3.013742
C       1.089222   -2.235709    4.320580
N       2.332570   -1.096979    2.469632
N       2.100254   -0.508476    1.330426
H       0.473334    2.143892    0.602686
H      -0.718228    1.945607   -0.698400
H      -1.132344    1.480621    0.960748
H      -0.584281   -0.550117   -0.453229
H       1.012289    0.129111   -0.797920
H      -0.925964   -1.290838    2.178557
H       1.630101   -3.186464    4.273316
H       1.547803   -1.641565    5.117188
H       0.054806   -2.446673    4.603609
