20

C       0.143384    1.397444   -0.214876
N      -0.009455   -0.018064    0.097402
C       0.730770   -0.428133    1.283281
C      -1.326468   -0.478901    0.041478
C      -1.891804   -1.883272   -0.132706
C      -2.860727   -1.721097    1.035108
C      -2.755810   -0.200628    0.767105
O      -3.378069   -0.035940   -0.534743
C      -2.264106   -0.723459   -1.090243
H       1.205058    1.630595   -0.346297
H      -0.380591    1.623408   -1.146766
H      -0.255035    2.059016    0.574323
H       0.391742    0.079454    2.204147
H       0.622879   -1.506498    1.425597
H       1.793477   -0.201887    1.148163
H      -1.372178   -2.767090   -0.480720
H      -3.863968   -2.150820    0.952912
H      -2.398292   -2.001676    1.985193
H      -3.056264    0.556418    1.488485
H      -2.126985   -0.740920   -2.163282
