23

C      -0.298550    1.416904    0.175868
C      -0.041063   -0.078119    0.006483
C       0.813675   -0.494415   -1.244439
C       0.872332    0.409071   -2.468460
C       2.034866   -0.607169   -0.314179
C       3.339089   -1.309917   -0.516579
C       3.305183    0.196568   -0.392675
C       1.113887   -0.627301    0.913208
O       1.489461    0.070345    2.075157
H       0.612314    2.014503    0.052990
H      -1.021832    1.779929   -0.560831
H      -0.701294    1.624485    1.172316
H      -0.987277   -0.618431    0.106709
H       0.510318   -1.499414   -1.562548
H       1.156019    1.433358   -2.209770
H       1.604280    0.036169   -3.194199
H      -0.097625    0.448154   -2.976068
H       3.746163   -1.879196    0.313604
H       3.546904   -1.734148   -1.494485
H       3.492956    0.790102   -1.281572
H       3.686901    0.631296    0.526632
H       0.905645   -1.649262    1.246118
H       1.713643    0.970886    1.817559
