14

C      -0.140090    1.460072    0.061011
C       0.009217   -0.018941   -0.034098
C       0.060172   -0.815411   -1.126329
O       0.216066   -2.122097   -0.699708
C       0.236013   -2.008420    0.643176
O       0.430118   -3.129168    1.361364
C      -0.176080   -4.298950    0.948525
O       0.048601   -5.326660    1.495706
N       0.120574   -0.817515    1.111780
H       0.716823    1.902918    0.578775
H      -0.216793    1.911245   -0.931228
H      -1.035655    1.723516    0.632933
H       0.008587   -0.665825   -2.190249
H      -0.856370   -4.143471    0.098604
