20

C       0.212501    1.288939    0.515235
C       1.485685    1.564690   -0.340267
C       1.371732    0.131188   -0.868435
C      -0.053434   -0.002354   -0.316799
N       1.913846   -0.347818   -2.142020
C       2.400578   -0.924380   -0.894434
C       3.854806   -0.942156   -0.438450
O       3.685097   -2.282139    0.083119
C       2.328771   -2.367119   -0.401330
H       0.451266    1.066032    1.557556
H      -0.567548    2.051646    0.491486
H       1.316240    2.301822   -1.130361
H       2.401571    1.828631    0.194921
H      -0.297646   -0.915842    0.233453
H      -0.811631    0.150783   -1.092046
H       1.259563   -0.977529   -2.604438
H       4.589503   -0.901068   -1.252225
H       4.136788   -0.228260    0.345874
H       1.612034   -2.578873    0.403422
H       2.217415   -3.126357   -1.188800
