17

O      -0.209610    1.312613   -0.045907
N      -0.040471   -0.071149    0.120052
C      -1.142588   -0.692148   -0.006838
C      -2.546085   -0.151095   -0.208883
N      -3.443663   -1.146451    0.416051
C      -2.747946   -2.432388    0.396838
C      -2.725049   -3.150788   -0.968649
O      -1.324395   -2.847840   -1.162110
C      -1.230627   -2.185348    0.125691
H       0.680516    1.647879    0.107675
H      -2.674480    0.839623    0.229907
H      -2.763656   -0.061750   -1.281171
H      -3.607529   -0.877263    1.379501
H      -3.032575   -3.045703    1.251263
H      -2.903252   -4.232365   -0.937763
H      -3.364954   -2.697622   -1.734545
H      -0.457988   -2.623122    0.761550
