17

O       2.264891    2.845409    2.225335
C       1.381092    2.861317    1.396467
N       1.431246    2.210879    0.196478
C       2.516113    1.333695   -0.147662
C       2.573168    0.043950    0.671380
C       1.381039   -0.780766    0.470843
N       0.424733   -1.404008    0.290753
C       2.933109    1.316414   -1.594066
C       3.817192    1.969427   -0.559765
H       0.434978    3.422815    1.523510
H       0.580742    2.151130   -0.343941
H       3.458430   -0.538883    0.398129
H       2.663473    0.302481    1.731593
H       3.238897    0.367012   -2.019086
H       2.391977    1.960608   -2.277956
H       3.862388    3.050771   -0.535557
H       4.736690    1.472128   -0.272945
