18

C       0.388577    0.876822   -0.901215
C      -0.187553    0.288233    0.366155
O       0.263004    0.516696    1.468573
C      -1.364704   -0.647289    0.219367
C      -2.382293   -0.740281    1.381653
N      -2.376141   -2.233561    1.300485
C      -1.288291   -2.209950    0.303685
C      -1.817144   -2.165246   -1.140385
O      -1.940087   -0.717612   -1.096675
H       1.233178    1.520747   -0.654404
H       0.706936    0.080112   -1.582035
H      -0.382444    1.440036   -1.436794
H      -1.953379   -0.336206    2.303232
H      -3.357731   -0.287317    1.182329
H      -2.102410   -2.670157    2.172363
H      -0.388913   -2.786177    0.523532
H      -1.101280   -2.473717   -1.912670
H      -2.779849   -2.662094   -1.292699
