16

C       0.081457    1.432728    0.003907
N       0.048216   -0.016184    0.000433
N      -0.322028   -0.709751   -1.070002
C      -0.280485   -1.974826   -0.647571
C       0.122241   -1.992983    0.696928
N       0.325382   -0.726909    1.083157
C       0.314307   -3.148664    1.594113
C       1.058755   -3.051381    2.858433
O      -0.363851   -3.125267    2.860434
H       0.960179    1.766326    0.557014
H       0.131743    1.767231   -1.031260
H      -0.818205    1.835380    0.478379
H      -0.527473   -2.790768   -1.308125
H       0.274494   -4.114565    1.091683
H       1.578336   -3.928977    3.241855
H       1.475327   -2.087565    3.143078
