24

C      -0.271459    1.539303   -0.376665
C      -0.098577    0.153053    0.240185
N      -1.304298   -0.642458    0.030520
C      -1.385255   -1.479749   -1.162542
C      -1.288846   -2.095713    0.200249
C      -0.014653   -2.827930    0.587905
C      -2.530945   -2.695636    0.874379
C      -3.826524   -1.915029    0.673602
O      -2.682450   -4.062471    0.482697
H       0.612730    2.157566   -0.192777
H      -0.415475    1.468236   -1.459861
H      -1.145294    2.042348    0.046601
H       0.805321   -0.321604   -0.174652
H       0.057030    0.243909    1.321948
H      -2.321429   -1.437912   -1.713968
H      -0.498367   -1.555269   -1.792368
H       0.842923   -2.540214   -0.023065
H       0.236063   -2.639982    1.638852
H      -0.173994   -3.902705    0.473882
H      -2.321417   -2.751746    1.951121
H      -4.134358   -1.920989   -0.378804
H      -4.625071   -2.382013    1.255787
H      -3.706894   -0.874772    0.980952
H      -2.880877   -4.065382   -0.460812
