17

N       0.007703   -1.145680   -0.139384
C      -0.001234    0.009272   -0.078545
C       0.020205    1.450192   -0.052389
N       0.401462    2.090760    1.221648
C       1.320285    2.203547    0.083205
C       2.695617    1.529701    0.178694
C       3.671970    2.483997   -0.565190
C       2.804111    3.642483   -0.991361
C       1.526888    3.480233   -0.647457
H      -0.757776    1.911811   -0.655388
H      -0.139336    2.944546    1.345610
H       2.964037    1.408588    1.230307
H       2.681179    0.532024   -0.266431
H       4.498956    2.815664    0.073783
H       4.136270    2.000108   -1.432932
H       3.198621    4.498850   -1.526720
H       0.714762    4.169925   -0.852269
