23

C      -0.251258    1.609605   -0.140836
C      -0.082554    0.096634   -0.047406
C       0.925231   -0.643253   -1.057205
C       1.920058   -0.767501    0.137520
C       2.562666   -1.704797    1.224909
C       1.884828   -0.617710    2.195840
C       2.730031    0.625981    1.902990
C       2.802819    0.494202    0.354074
C       0.759032   -0.626306    1.090233
H       0.680651    2.169567   -0.053199
H      -0.710214    1.880412   -1.098852
H      -0.919614    1.961133    0.653007
H      -1.085937   -0.338609   -0.095768
H       0.501942   -1.593024   -1.393930
H       1.266840   -0.078434   -1.930418
H       2.094185   -2.686947    1.305065
H       3.654249   -1.794087    1.272179
H       1.674716   -0.856655    3.240622
H       2.239573    1.548326    2.227943
H       3.711593    0.582324    2.384342
H       3.820824    0.302813   -0.001784
H       2.447507    1.378928   -0.172317
H       0.267955   -1.601243    1.186985
