16

C       0.011772    1.528287   -0.004154
C      -0.031829    0.015797   -0.000292
C      -1.223168   -0.620056   -0.118200
C      -1.557297   -2.052790   -0.144378
O      -2.730292   -2.390074   -0.262009
C      -0.507451   -3.068872   -0.031876
C       0.834822   -2.941475    0.104185
N       1.655572   -1.842687    0.181823
C       1.273531   -0.611047    0.136162
H       0.634331    1.897771   -0.827212
H      -0.985210    1.959149   -0.108146
H       0.455875    1.907418    0.923511
H      -2.117705   -0.008148   -0.212706
H      -0.904927   -4.080072   -0.066851
H       1.400108   -3.869954    0.166844
H       2.092727    0.109484    0.215704
