12

O      -0.017561   -0.050364   -0.003727
C       0.019251    1.153371    0.006140
C       1.252490    1.966528   -0.000126
N       2.475194    1.411469   -0.017856
N       3.312069    2.436301   -0.018125
C       2.683912    3.653756   -0.001173
C       1.329186    3.376633    0.011192
C       3.398894    4.873970    0.001468
N       3.998275    5.864491    0.003423
H      -0.908453    1.767250    0.020904
H       4.307202    2.268173   -0.030257
H       0.523621    4.092163    0.025980
