18

C      -0.081099    1.548842    0.025555
C       0.057351    0.054626   -0.003098
C      -0.801564   -0.887313    0.830417
C       0.680444   -0.949092    1.016338
C       1.279851   -1.752505   -0.122502
C       2.609046   -2.399827   -0.204494
N       1.376129   -3.201830   -0.297820
C       0.698724   -0.742671   -1.113802
O       0.870234   -0.536204   -2.282290
H       0.850223    2.038232   -0.276142
H      -0.865529    1.876351   -0.664958
H      -0.347697    1.903520    1.025999
H      -1.363716   -0.382822    1.610915
H      -1.328852   -1.716857    0.368099
H       1.179297   -0.695484    1.943194
H       3.176238   -2.326784   -1.127985
H       3.204182   -2.448990    0.704236
H       1.192065   -3.663180    0.591321
