21

C       0.246138    1.390168   -0.210677
C      -0.203220   -0.034919    0.131796
C       0.606915   -0.632197    1.269130
C       0.780620   -2.076582    1.579413
C       2.007853   -1.226336    1.118267
C       2.092432   -2.099783   -0.094950
O       2.929277   -2.259560   -0.940644
C       0.848611   -2.943561    0.307077
C       1.218995   -4.410017    0.526591
H       1.292622    1.404576   -0.531591
H      -0.360263    1.811085   -1.018064
H       0.154228    2.053655    0.656395
H      -1.261843   -0.028242    0.422607
H      -0.134857   -0.660654   -0.763128
H       0.564601   -0.019958    2.170245
H       0.630556   -2.481433    2.572997
H       2.848817   -0.833746    1.677350
H      -0.018318   -2.870573   -0.357281
H       2.070046   -4.505458    1.209271
H       0.378145   -4.967240    0.951638
H       1.497438   -4.875336   -0.422810
