17

C       0.032088    1.487989   -0.142770
O       1.501193    1.463572    0.059219
C       1.343702    0.225362    0.800858
C       1.139259    0.297701    2.297909
C       0.231189   -0.655105    2.522736
C      -0.032860   -1.244992    1.144126
C       1.383719   -1.310120    0.375625
C       0.692407   -0.949752   -0.944224
C       0.012300   -0.034717    0.106762
H      -0.447567    2.100494    0.627906
H      -0.230943    1.840028   -1.143657
H       1.631940    0.979684    2.975405
H      -0.214420   -0.985134    3.450378
H      -0.730650   -2.074626    1.021489
H       2.168526   -2.054696    0.553706
H       1.312188   -0.443805   -1.686941
H       0.063348   -1.717539   -1.401294
