20

O       0.013903    1.405698    0.079492
C       0.016056    0.010757   -0.035379
C      -0.370395   -0.831010    1.154683
C      -1.324218   -0.671550   -0.015560
C      -2.588162    0.102807    0.096929
C      -2.908060    1.271854    1.047450
C      -4.392569    0.780957    1.112947
C      -4.025081   -0.357621    0.153733
N      -3.449300    0.160049   -1.083812
H       0.772194    1.660108    0.615524
H       0.767966   -0.386872   -0.716972
H       0.113995   -1.789585    1.306437
H      -0.610347   -0.295064    2.067052
H      -1.420331   -1.523520   -0.681278
H      -2.410750    1.199156    2.016669
H      -2.714146    2.266226    0.636112
H      -4.671511    0.436159    2.111762
H      -5.166432    1.468407    0.753367
H      -4.446930   -1.357035    0.137390
H      -3.764743    1.104380   -1.302117
