14

C      -0.016643    1.485909    0.056482
C      -0.001441    0.000254   -0.047169
C      -0.048485   -0.803899   -1.147666
N      -0.003908   -2.109796   -0.669607
N      -0.008227   -3.401793   -1.094145
N       0.060673   -4.108204   -0.001871
N       0.110468   -3.354942    1.132909
C       0.068309   -2.115912    0.678637
N       0.071093   -0.815296    1.088011
H       0.893702    1.865656    0.534363
H      -0.083904    1.928776   -0.938960
H      -0.872759    1.839859    0.642159
H      -0.108128   -0.561437   -2.193181
H       0.118008   -0.502494    2.041425
