19

O      -0.092976    1.462066   -0.030630
C      -0.016509    0.050751    0.111507
C      -1.409411   -0.521793   -0.116226
C      -1.452950   -2.040877   -0.011024
C      -1.252804   -2.729817    1.396710
C      -2.619999   -3.396136    1.219362
N      -3.598484   -2.287393    1.096674
C      -2.826505   -2.726870   -0.092431
H       0.778814    1.828642    0.142734
H       0.689825   -0.383023   -0.616868
H       0.343388   -0.228124    1.115418
H      -2.101971   -0.086149    0.610450
H      -1.751192   -0.209435   -1.111456
H      -0.769363   -2.495379   -0.736807
H      -0.416901   -3.432448    1.406968
H      -1.180632   -2.060058    2.257930
H      -2.934298   -4.374944    1.560334
H      -4.523122   -2.710587    1.019203
H      -3.338991   -3.070339   -0.983517
