19

C      -0.263836    1.417894    0.129968
C      -0.163404   -0.033804    0.077351
C      -0.067447   -1.233777    0.042142
C       0.002268   -2.689183    0.006356
C      -1.386387   -3.356611   -0.047014
C      -1.302196   -4.872098   -0.162893
O      -2.099481   -3.056227    1.163747
C      -2.996929   -2.051068    1.147355
O      -3.585847   -1.698299    2.124769
H       0.668332    1.865065    0.492032
H      -0.473170    1.841131   -0.858511
H      -1.066527    1.733536    0.805069
H       0.576033   -3.021793   -0.868089
H       0.529304   -3.068005    0.891102
H      -1.943821   -2.943753   -0.898131
H      -0.759555   -5.292557    0.688986
H      -2.303449   -5.309353   -0.180348
H      -0.781897   -5.156684   -1.082095
H      -3.134537   -1.614450    0.140621
