18

C      -0.137116    1.366877   -0.238058
N      -0.151684    0.018532    0.287406
C      -1.154405   -1.029510    0.077372
C      -0.851010   -1.822446   -1.160274
C      -0.058488   -2.077561    0.123499
C       0.052588   -3.392173    0.838749
O       0.320057   -3.232832    2.221741
C       0.899310   -0.897310    0.301948
O       2.088460   -0.756347    0.419855
H       0.881993    1.749803   -0.143719
H      -0.431934    1.402692   -1.296033
H      -0.807986    2.016279    0.332913
H      -2.096274   -1.020141    0.610034
H      -1.555823   -2.609128   -1.419593
H      -0.378502   -1.344803   -2.013947
H      -0.891804   -3.942851    0.767700
H       0.823109   -4.009511    0.351101
H       1.190663   -2.827500    2.302422
