19

O      -0.118960    1.314276    0.110334
C       0.014073   -0.069966    0.008967
C      -0.389265   -0.787230   -1.256523
C      -1.200295   -0.956572    0.017471
C      -0.777013   -1.976116    1.089797
O      -1.736936   -2.951958    1.336623
C       0.708754   -2.293722    0.755723
C       0.879285   -0.783360    1.074605
C      -0.198593   -0.999069    2.187844
H       0.641186    1.717513   -0.322938
H      -0.860667   -0.139951   -1.989672
H       0.186021   -1.595847   -1.691506
H      -2.204371   -0.553548    0.069582
H      -1.413415   -3.522147    2.041554
H       1.166708   -2.913486    1.531881
H       0.978527   -2.683075   -0.226051
H       1.857368   -0.355546    1.292682
H      -0.805275   -0.137023    2.473729
H       0.184929   -1.519520    3.071433
