17

C      -0.004417    1.552793    0.008662
C       0.007558    0.028383    0.054861
O       0.731968   -0.467470    1.179029
C      -1.408364   -0.561639    0.030685
O      -2.060400   -0.096431   -1.137672
C      -1.398275   -2.087417    0.044791
O      -2.760910   -2.489834   -0.099034
H       1.018338    1.939326    0.004591
H      -0.527820    1.905307   -0.882633
H      -0.524264    1.960865    0.885470
H       0.544808   -0.355923   -0.820764
H       0.387981   -0.025896    1.963585
H      -1.947674   -0.216883    0.933613
H      -2.820028   -0.681062   -1.256670
H      -0.790151   -2.451545   -0.796741
H      -0.959837   -2.457349    0.978849
H      -2.783993   -3.428874   -0.301100
