22

C      -0.044318    1.611222    0.057074
C       0.022883    0.082262   -0.007008
C       0.786429   -0.521464    1.177061
C       0.796559   -2.069705    1.217061
C       1.536312   -2.694953    0.016192
C       1.371872   -2.543272    2.477383
C       1.866039   -2.917820    3.510248
C       2.453594   -3.377565    4.761267
H       0.958993    2.051581    0.051424
H      -0.593036    2.022986   -0.795744
H      -0.546072    1.947663    0.971114
H      -0.995852   -0.328264   -0.028227
H       0.492109   -0.217206   -0.951508
H       1.824261   -0.163132    1.173772
H       0.342430   -0.159148    2.111936
H      -0.250586   -2.405461    1.175475
H       1.540180   -3.785411    0.092364
H       1.057955   -2.421664   -0.928348
H       2.576824   -2.355723   -0.012247
H       2.845417   -4.396752    4.668151
H       3.283160   -2.733403    5.074005
H       1.716083   -3.381086    5.571829
