15

C      -0.084802    1.457590    0.048982
N      -0.011201    0.003292    0.010282
C      -0.001445   -0.746138   -1.135563
C       0.076864   -2.061593   -0.705815
O       0.113378   -3.151148   -1.495620
N       0.113841   -2.135143    0.634403
C       0.059288   -0.871910    1.066591
C       0.071233   -0.436497    2.458409
O       0.132709   -1.174804    3.414979
H       0.797421    1.881728    0.534634
H      -0.129741    1.828388   -0.975431
H      -0.980189    1.790456    0.579575
H      -0.048383   -0.305612   -2.116508
H       0.166969   -3.913663   -0.905187
H       0.017756    0.667494    2.590003
