17

N      -0.097909    1.289867    0.140844
C       0.011709    0.040709   -0.044156
O       1.233781   -0.545312   -0.222750
C       1.322817   -1.880811   -0.743561
C       0.209243   -2.767066   -0.221734
C      -0.161243   -2.553030    1.270965
N      -1.479714   -1.922013    0.912993
C      -1.184276   -2.207930   -0.535661
C      -1.211854   -0.811902   -0.054863
H       0.823151    1.731584    0.092947
H       1.307669   -1.840880   -1.841823
H       2.306000   -2.241237   -0.427349
H       0.370904   -3.806346   -0.511014
H      -0.356707   -3.485963    1.802495
H       0.498057   -1.922309    1.873299
H      -1.920182   -2.624155   -1.215219
H      -2.108716   -0.227945   -0.219514
