19

C       0.238533    1.419981    0.195722
C      -0.128357   -0.022175   -0.183316
N       0.639104   -0.483101   -1.329186
C       1.744196   -1.080859   -1.129099
N       2.389190   -1.440272    0.039904
C       3.753612   -1.931618   -0.151853
C       3.783519   -2.344799   -1.632124
C       2.613597   -1.592434   -2.267186
O       2.412349   -1.433567   -3.439345
H       1.281009    1.494500    0.524063
H       0.114871    2.078417   -0.668212
H      -0.401322    1.782899    1.006361
H      -0.019996   -0.679725    0.696638
H      -1.187785   -0.054334   -0.460958
H       2.135054   -1.015825    0.915834
H       4.496773   -1.147396    0.049512
H       3.962081   -2.766272    0.524484
H       4.722859   -2.117720   -2.138252
H       3.593566   -3.417473   -1.750471
