20

C       0.512420    1.605778   -0.081403
C       0.005543    0.190293    0.172505
C       0.541632   -0.880967   -0.820574
C       1.569919   -1.344270    0.244684
C       0.763152   -0.565764    1.328274
O       1.486080    0.199479    2.272934
C      -0.185254   -1.496919    2.088180
N      -0.079809   -1.450811    3.438189
O      -0.964990   -2.223024    1.494487
H       1.592926    1.629874   -0.274778
H       0.024961    2.028845   -0.965569
H       0.305710    2.266074    0.766843
H      -1.079679    0.196331    0.294809
H      -0.201415   -1.651243   -1.023928
H       0.949643   -0.503957   -1.762118
H       1.694779   -2.417240    0.398757
H       2.556872   -0.890424    0.106198
H       2.134538    0.732367    1.804307
H       0.570825   -0.821711    3.875309
H      -0.684855   -2.036121    3.988753
