12

O       0.072569   -0.063365    0.003558
C      -0.054645    1.143459    0.007754
C       1.135585    2.021330    0.001237
N       2.092564    2.669316   -0.004153
C      -1.336101    1.820485    0.019115
C      -2.617944    1.330329    0.027395
C      -3.475040    2.460151    0.036800
C      -2.654158    3.554636    0.033559
O      -1.360273    3.187329    0.022991
H      -2.887487    0.286407    0.026618
H      -4.553217    2.468671    0.044874
H      -2.840231    4.616624    0.037756
