22

C       0.060796    1.558652   -0.041585
C      -0.019868    0.024636    0.003838
C      -1.496546   -0.415560    0.084526
C       0.701321   -0.637980   -1.212277
C       1.482054   -1.822657   -0.633506
C       1.406536   -3.198643   -1.203510
N       2.644944   -2.408915   -1.323742
C       1.562770   -1.553839    0.827542
C       0.758127   -0.552416    1.177408
H       1.101034    1.898745   -0.062918
H      -0.443891    1.952240   -0.931301
H      -0.420695    2.004235    0.836231
H      -2.071477   -0.009956   -0.755969
H      -1.581734   -1.506372    0.064642
H      -1.962681   -0.060215    1.010085
H       0.004850   -0.928677   -2.004550
H       1.412321    0.076567   -1.645097
H       1.480293   -4.067202   -0.553792
H       0.787671   -3.346261   -2.085693
H       2.714114   -2.018625   -2.261358
H       2.192215   -2.141226    1.485768
H       0.611717   -0.184667    2.188266
