18

C       0.034390    1.496345    0.050853
C       0.012398    0.004040   -0.006707
C      -0.020373   -0.796527   -1.073309
C      -0.073935   -2.251478   -0.673509
N       0.006756   -2.274201    0.805586
C       1.245750   -1.730907    1.350689
C       0.039036   -0.842914    1.240732
C      -0.706206   -0.434215    2.398783
C      -1.315008   -0.049648    3.361944
H       0.951724    1.861951    0.528751
H      -0.031923    1.934552   -0.947824
H      -0.800597    1.872453    0.652780
H       0.002688   -0.465783   -2.105589
H      -1.011616   -2.730403   -0.984910
H       0.743660   -2.847804   -1.098767
H       1.524103   -2.135794    2.319679
H       2.071353   -1.510842    0.676263
H      -1.859204    0.272965    4.214776
