16

C       0.012594    1.518255   -0.033903
C      -0.041144    0.018298    0.084410
C      -1.362048   -0.696498   -0.218316
N      -1.247348   -1.944960    0.515482
C      -0.229176   -1.974275    1.445165
O      -0.082810   -2.800730    2.317137
C       0.651662   -0.787098    1.135385
N       1.174947   -0.721390   -0.248280
H       1.013367    1.879212    0.212888
H      -0.215497    1.836594   -1.057708
H      -0.709727    1.993584    0.637795
H      -2.209183   -0.091094    0.133201
H      -1.496413   -0.865256   -1.294983
H      -1.980786   -2.634410    0.549773
H       1.287260   -0.389644    1.917311
H       0.964454   -1.586563   -0.743649
