20

C      -0.057503    1.613163    0.037456
C       0.045845    0.081157   -0.001511
C      -1.349676   -0.565638    0.120815
C       0.757177   -0.384866   -1.239978
C       0.893227    0.156997   -2.501013
N       1.620928   -0.687992   -3.279209
N       1.950486   -1.729495   -2.574475
N       1.432605   -1.562789   -1.334498
C       1.672359   -2.575234   -0.327733
H       0.927941    2.081691   -0.031592
H      -0.668867    1.986065   -0.790944
H      -0.529626    1.938451    0.969244
H       0.638085   -0.236379    0.867705
H      -1.985218   -0.264668   -0.718024
H      -1.294511   -1.658245    0.120242
H      -1.836830   -0.252618    1.049837
H       0.519730    1.093135   -2.883085
H       2.181994   -2.148461    0.541082
H       0.737030   -3.038236   -0.000721
H       2.309632   -3.332238   -0.784355
