21

C      -0.020643    1.546161   -0.022979
C      -0.030250    0.020202    0.011608
C      -1.343157   -0.673910    0.522460
C      -0.477984   -1.677653    1.330282
C       0.708106   -0.682717    1.189648
O       2.023509   -1.130989    0.977617
C       2.210227   -1.918071   -0.184077
C       1.428730   -1.446675   -1.376839
C       0.430297   -0.570283   -1.290460
H       0.992907    1.926766   -0.188632
H      -0.655716    1.929042   -0.830799
H      -0.391914    1.963132    0.919556
H      -1.918484   -0.005167    1.169543
H      -2.010657   -1.086207   -0.237345
H      -0.798071   -1.930348    2.342982
H      -0.306905   -2.602142    0.774413
H       0.768689   -0.024537    2.061267
H       3.285636   -1.884711   -0.397160
H       1.970439   -2.977340    0.021352
H       1.713938   -1.876695   -2.333846
H      -0.105763   -0.258012   -2.185685
