16

O      -0.082951    1.381473    0.037987
C       0.009028    0.004950   -0.021266
C       0.366524   -0.820736   -1.306970
C      -0.312757   -1.929291   -0.473936
O       0.566698   -2.112199    0.639804
C       0.848461   -0.752129    1.027129
C      -1.316201   -0.831716    0.018349
C      -2.023173   -1.013447    1.271327
N      -2.579286   -1.156141    2.274747
H       0.800102    1.755472    0.133449
H      -0.206141   -0.503901   -2.179419
H       1.420512   -0.968716   -1.548178
H      -0.638607   -2.888455   -0.865882
H       1.921725   -0.541937    0.939448
H       0.520200   -0.569893    2.055318
H      -1.999583   -0.514365   -0.770819
