23

C       0.066644    1.886854   -0.329096
C       0.031046    0.373006   -0.555390
C      -1.072612   -0.427760    0.142603
C      -1.591054    0.031458    1.485517
C      -2.465161    0.151917    0.258405
C      -0.926952   -1.894952   -0.178828
C      -0.124453   -2.844825    0.698834
C      -1.603929   -3.055339    0.494463
O      -2.511722   -2.825377    1.536120
H       0.879447    2.330364   -0.912751
H      -0.861522    2.374307   -0.643345
H       0.243756    2.143101    0.719741
H      -0.046815    0.183850   -1.635607
H       0.997629   -0.050791   -0.250557
H      -1.863180   -0.718083    2.214793
H      -1.176547    0.943403    1.899995
H      -2.659372    1.140803   -0.142544
H      -3.297942   -0.537218    0.178069
H      -0.797803   -2.056970   -1.248063
H       0.582697   -3.536127    0.252745
H       0.166179   -2.452681    1.668400
H      -1.898859   -3.872647   -0.164685
H      -2.403350   -3.530927    2.182200
