19

C      -0.139930    1.486230    0.063798
C       1.245089    0.902322   -0.002177
C       0.040032   -0.016959    0.017338
C      -0.244268   -0.879104    1.197363
C      -0.650699   -2.105403    0.859151
C      -0.734054   -2.261451   -0.635828
O      -2.084441   -2.172368   -1.167458
C      -1.854107   -0.821756   -1.622752
C      -0.369638   -0.855952   -1.188795
H      -0.468600    1.932886    0.996423
H      -0.532509    1.972866   -0.823105
H       1.793857    0.989084   -0.934572
H       1.866293    0.946749    0.886288
H      -0.114611   -0.517014    2.212783
H      -0.912276   -2.898141    1.549812
H      -0.225944   -3.150299   -1.026583
H      -2.035107   -0.725839   -2.700052
H      -2.473366   -0.090221   -1.088044
H       0.343407   -0.816940   -2.013061
