18

O       0.079196   -0.030786   -0.285706
C      -0.020008    1.155937   -0.099548
C      -1.306199    2.007137   -0.032855
C      -0.787825    3.451101   -0.113805
C      -1.308564    4.616043    0.745176
C      -0.023982    5.451337    1.035680
C       1.086482    4.411309    0.999331
C       0.633630    3.318633    0.386353
N       1.048240    2.019526    0.145940
H      -2.000515    1.709347   -0.819524
H      -1.783001    1.794918    0.932528
H      -0.757349    3.750894   -1.171906
H      -2.097906    5.197845    0.262230
H      -1.706399    4.226933    1.689503
H       0.118475    6.232884    0.274492
H      -0.082115    5.968945    1.999386
H       2.068846    4.562100    1.427228
H       1.972238    1.653465    0.315261
