12

N       0.056170    1.317494    0.134229
C      -0.043683   -0.031450    0.038260
N      -1.120710   -0.738494    0.011991
N      -0.623356   -2.046415    0.002276
C      -1.437109   -3.180887   -0.022293
O      -2.635330   -3.152025   -0.029735
C       0.763378   -2.076758    0.001228
O       1.532156   -2.987604   -0.017830
O       1.126244   -0.728578    0.027487
H       0.896454    1.728601   -0.242045
H      -0.796998    1.821011   -0.056211
H      -0.812315   -4.088559   -0.033902
