21

C       0.002890    1.618599    0.177611
C      -0.012129    0.102755   -0.003951
C       0.940330   -0.419186   -1.110863
O       1.850061   -0.963899   -0.136723
C       0.945655   -0.666907    0.944577
C      -1.437024   -0.420990   -0.031070
C      -2.307309   -0.177714   -1.288107
C      -2.476134   -1.708765   -1.285047
O      -1.517318   -1.854651   -0.215332
H       1.030150    1.993331    0.215992
H      -0.507174    2.124917   -0.650007
H      -0.496587    1.911561    1.108313
H       0.515110   -1.203024   -1.749624
H       1.416151    0.345799   -1.737195
H       1.423454   -0.071694    1.732797
H       0.518513   -1.578237    1.379898
H      -1.944017   -0.129479    0.902228
H      -3.210651    0.417330   -1.150132
H      -1.748533    0.208674   -2.143550
H      -3.471973   -2.060521   -0.986387
H      -2.165503   -2.244823   -2.188552
