13

O      -0.099609    1.277064   -0.287906
C       0.041436   -0.014692    0.021954
N       1.250656   -0.481698    0.105663
C       1.569000   -1.801160    0.181080
C       0.818481   -2.913810   -0.055863
C      -0.614465   -2.976324   -0.287972
O      -1.198853   -3.954697   -0.725868
C      -1.437098   -1.828071    0.224830
N      -1.171361   -0.579268    0.318035
H       0.793878    1.614863   -0.449127
H       2.625117   -1.960213    0.391637
H       1.320307   -3.876872   -0.059623
H      -2.433422   -2.141247    0.546565
