18

C       0.281131    1.367450    0.187069
C       0.030731   -0.137129    0.243878
O       0.030601   -0.619788    1.583898
C      -1.271367   -0.539370   -0.486767
C      -1.406277   -2.048010   -0.542589
O      -0.763136   -2.723415   -1.319699
C      -2.339518   -2.727007    0.441892
O      -2.343638   -4.111977    0.279102
H       1.198299    1.614390    0.728630
H       0.382040    1.715015   -0.845465
H      -0.549090    1.920105    0.645460
H       0.858757   -0.665063   -0.241640
H      -0.545828   -0.049520    2.105147
H      -2.130422   -0.086307    0.023414
H      -1.240281   -0.163446   -1.514294
H      -2.002784   -2.427942    1.449486
H      -3.350729   -2.305423    0.310762
H      -1.693299   -4.281313   -0.421849
