18

C      -0.042254    1.577358   -0.222775
C       0.022328    0.047396   -0.115760
C      -1.395923   -0.477000   -0.071413
O      -1.927689   -0.967055    0.892617
C       0.984801   -0.546748   -1.163237
C       2.125763   -0.459428   -0.222208
C       1.053235   -0.457761    0.937503
C       1.047947   -1.983091    0.740604
N       1.628689   -1.798280   -0.635130
H       0.965697    1.997033   -0.292564
H      -0.598400    1.891198   -1.113269
H      -0.538068    2.008657    0.652735
H      -1.955282   -0.345560   -1.029400
H       0.965302   -0.427068   -2.239094
H       3.147323   -0.119965   -0.327445
H       1.118852    0.017817    1.913645
H       1.797306   -2.491460    1.351953
H       0.096824   -2.517561    0.791717
