18

C       0.331193    1.671003    0.214957
C      -0.002130    0.190123    0.222668
O       0.879882   -0.465798    1.124476
C       0.658386   -1.855907    1.255168
C       1.907696   -2.429630    1.936438
O       2.148925   -1.796925    3.176085
C      -0.577662   -2.140248    2.110517
O      -1.143784   -3.200821    2.126350
H       1.368522    1.828835   -0.093384
H      -0.323153    2.202707   -0.481773
H       0.198872    2.101169    1.211708
H      -1.049146    0.030619    0.525449
H       0.112287   -0.242859   -0.783755
H       0.523083   -2.342601    0.276829
H       1.754310   -3.493989    2.135173
H       2.759285   -2.320564    1.248058
H       2.186051   -0.850886    2.992260
H      -0.898079   -1.283222    2.744543
