15

O       0.022929   -0.157617   -0.124917
C       0.020515    1.043256   -0.127294
C       1.277976    1.906988   -0.071717
C       1.306297    2.916894   -1.191485
C       1.818542    2.609281   -2.453765
N       1.827889    3.477306   -3.464759
C       1.306068    4.678333   -3.207765
N       0.788979    5.096030   -2.051915
C       0.797199    4.208481   -1.056683
H      -0.928006    1.624919   -0.174280
H       1.270932    2.427535    0.895207
H       2.146308    1.243794   -0.097276
H       2.242345    1.625763   -2.651703
H       1.305230    5.392776   -4.027116
H       0.387096    4.543779   -0.104627
