22

C      -0.238518    1.659371    0.715223
C      -0.031464    0.166877    0.449057
C       0.771116   -0.526320    1.559639
N       0.852687   -1.955249    1.325783
C       1.921248   -2.523033    0.964817
C       3.304690   -1.955900    0.670677
O       4.348785   -2.834315    1.025079
O       1.946190   -3.860201    0.727238
C       0.727932   -4.573108    0.935008
H       0.717829    2.188670    0.792628
H      -0.812716    2.128705   -0.089206
H      -0.783038    1.823929    1.651745
H      -0.997772   -0.340723    0.351522
H       0.489152    0.024126   -0.506312
H       1.750180   -0.033043    1.658759
H       0.248353   -0.377545    2.513472
H       3.336525   -1.698537   -0.402485
H       3.457669   -1.029458    1.227913
H       4.050895   -3.719711    0.787320
H       0.949017   -5.613956    0.694409
H       0.397010   -4.479772    1.972870
H      -0.061938   -4.185985    0.285769
