16

C      -0.069437    1.487836    0.010994
C      -0.015381    0.032806    0.002441
C       0.045693   -1.169435   -0.004836
C       0.085479   -2.626674   -0.013106
C      -1.325117   -3.238310   -0.002805
C      -1.308015   -4.747213   -0.011233
O      -0.317902   -5.433629   -0.024495
C      -2.648922   -5.377748   -0.001787
N      -3.702402   -5.854255    0.005744
H       0.936798    1.920860    0.003943
H      -0.601457    1.872189   -0.866115
H      -0.584856    1.862429    0.902125
H       0.627273   -2.991668   -0.893286
H       0.644133   -3.001126    0.852435
H      -1.895334   -2.908749    0.875730
H      -1.912201   -2.899198   -0.866466
