14

C       0.010922    1.466473    0.036320
C       0.012509   -0.025139   -0.024582
C      -0.150314   -0.813309   -1.147808
N      -0.067328   -2.106311   -0.659413
N      -0.118084   -3.405353   -1.056335
N       0.045056   -4.122277   -0.003097
N       0.201479   -3.306610    1.075594
C       0.134195   -2.004195    0.688655
N       0.192154   -0.776130    1.135760
H       0.959411    1.839826    0.436534
H      -0.141423    1.901345   -0.954540
H      -0.782746    1.827175    0.698976
H      -0.307142   -0.588576   -2.187079
H       0.340426   -3.707018    1.986768
