24

C       0.053193    1.588197   -0.050067
C       0.024556    0.059579    0.032025
C      -1.392522   -0.521286   -0.020336
C      -1.431210   -2.050969    0.060706
C      -2.851657   -2.621197    0.014008
C      -2.888523   -4.148989    0.091550
C      -4.311119   -4.696334    0.201246
N      -4.471583   -5.973103   -0.261771
O      -5.234192   -4.057881    0.668257
H       1.077162    1.972982   -0.010016
H      -0.399500    1.943012   -0.982775
H      -0.504617    2.039359    0.778164
H       0.619345   -0.362878   -0.788982
H       0.515154   -0.266926    0.958774
H      -1.988749   -0.099980    0.800941
H      -1.884575   -0.194156   -0.947044
H      -0.835797   -2.472383   -0.761985
H      -0.937430   -2.377917    0.987027
H      -3.452357   -2.221289    0.837143
H      -3.351245   -2.295162   -0.907025
H      -2.376318   -4.598554   -0.768356
H      -2.342532   -4.489041    0.983252
H      -3.693997   -6.533953   -0.562086
H      -5.360724   -6.421903   -0.113167
