19

O       0.330142    0.160428   -0.445716
C       0.427840    1.347968   -0.516516
O       0.970148    2.090833    0.474162
C       0.997007    3.490093    0.259590
C       2.093392    4.228462    0.959046
C       2.124238    4.088410   -0.550093
C       3.141006    3.215493   -1.213761
C       3.126705    3.036862   -2.714810
C       4.229892    3.828856   -2.058702
H       0.091047    1.959499   -1.374432
H       0.007450    3.935692    0.209528
H       1.866510    5.189889    1.405119
H       2.792512    3.618854    1.521299
H       1.855037    4.975043   -1.119850
H       3.424433    2.341811   -0.635358
H       3.359483    2.057990   -3.118495
H       2.381897    3.585366   -3.282616
H       4.224470    4.906381   -2.186399
H       5.221873    3.393778   -2.011670
