18

C       0.046763    1.437025   -0.206312
C       0.027973   -0.036431    0.232076
O       0.512673   -0.169318    1.550428
C      -1.357566   -0.622593    0.152279
N      -2.117314   -0.806882    1.221269
C      -3.264629   -1.316355    0.699623
N      -3.263709   -1.458860   -0.612976
N      -2.024495   -1.010526   -0.954797
C      -1.623950   -0.982928   -2.346486
H       1.056841    1.834559   -0.079270
H      -0.244536    1.552885   -1.255899
H      -0.639299    2.020991    0.413746
H       0.698195   -0.607091   -0.428318
H      -0.261610   -0.321845    2.112017
H      -4.117110   -1.594426    1.300926
H      -2.007527   -0.089397   -2.848428
H      -0.534656   -0.991985   -2.412532
H      -2.025585   -1.868417   -2.840383
