17

N      -0.047997   -1.146664   -0.006037
C      -0.026633    0.008674    0.000865
C       0.032592    1.469977    0.009269
C       1.459828    1.992172   -0.001432
C       2.549347    1.757516   -1.090082
C       3.209613    2.667191   -0.014393
C       1.888871    3.489802    0.004660
C       2.571043    1.742554    1.061654
H      -0.513368    1.847606   -0.863693
H      -0.496250    1.836811    0.897242
H       2.935367    0.739228   -1.180547
H       2.365234    2.208010   -2.069631
H       4.225297    3.060417   -0.021900
H       1.655857    4.068973   -0.893510
H       1.674105    4.056361    0.915337
H       2.406810    2.179370    2.050883
H       2.958648    0.723156    1.130139
