21

C       0.025992    1.583518    0.034765
C       0.007486    0.052717    0.005896
C      -1.409065   -0.530615   -0.000674
C      -1.439852   -2.061322   -0.035354
C      -2.855086   -2.648978    0.042815
C      -2.860647   -4.173799   -0.071938
O      -3.536389   -2.221987    1.222914
H       1.049073    1.972633    0.044785
H      -0.480758    2.001719   -0.842193
H      -0.486090    1.967667    0.924007
H       0.553976   -0.303778   -0.877753
H       0.555164   -0.336292    0.875016
H      -1.958335   -0.187219    0.883665
H      -1.959028   -0.139453   -0.868338
H      -0.954311   -2.425794   -0.950645
H      -0.847877   -2.463958    0.801617
H      -3.454605   -2.229162   -0.775484
H      -2.260980   -4.625135    0.729027
H      -3.881221   -4.557767    0.008724
H      -2.438369   -4.502757   -1.027095
H      -3.070650   -2.601025    1.977046
