14

O      -0.092538    1.369155    0.010737
C       0.012960    0.010867    0.003026
C       1.163195   -0.686033   -0.007682
O       1.223125   -2.041853   -0.015103
C       0.064771   -2.822057   -0.012015
N       0.146163   -4.091606   -0.019085
C      -1.182273   -2.094741   -0.000533
C      -1.226885   -0.741397    0.006769
O      -2.351784    0.000065    0.017561
H       0.789723    1.755892    0.007183
H       2.148318   -0.234404   -0.011408
H       1.121813   -4.387725   -0.026637
H      -2.083547   -2.696159    0.001910
H      -3.115732   -0.588749    0.019221
