18

O       0.130450    1.234565   -0.335731
C      -0.004500   -0.050862    0.248553
C      -1.428884   -0.511609    0.243447
C      -2.596278   -0.053264    1.118263
C      -3.406967   -1.177996    0.421427
O      -4.539299   -1.740544    0.968599
C      -3.452374   -0.702152   -1.030420
N      -1.967161   -0.897267   -1.122976
C      -2.009175   -1.854612    0.018637
H      -0.237676    1.160475   -1.224123
H       0.615436   -0.797821   -0.270234
H       0.366163    0.036998    1.275455
H      -2.394586   -0.286577    2.169488
H      -2.967910    0.972391    1.026514
H      -4.409524   -1.852531    1.916227
H      -3.939953   -1.417735   -1.696839
H      -3.813098    0.312935   -1.232948
H      -1.600914   -2.857220   -0.007221
