15

O       0.054556    1.324582    0.122229
C      -0.011736   -0.076745    0.049891
C      -1.477260   -0.505719    0.188321
O      -2.293218    0.121901    0.828982
N      -1.763272   -1.685053   -0.442820
C      -3.055124   -2.338929   -0.288612
C      -2.925522   -3.743166    0.088780
C      -2.806350   -4.904518    0.372657
H       0.968549    1.573075    0.285457
H       0.404543   -0.464296   -0.895253
H       0.538463   -0.564323    0.871402
H      -1.045484   -2.169406   -0.956667
H      -3.590924   -1.768805    0.477273
H      -3.642783   -2.259319   -1.213392
H      -2.713513   -5.928332    0.639222
