16

C       0.625008   -0.330331   -1.384065
O      -0.094699   -0.119754   -0.179639
C       0.532248   -0.639633    0.962997
C      -0.448338   -0.729048    2.161385
O      -0.201094   -2.133455    2.317194
C       0.628556   -2.174612    1.137746
C       1.793961    0.142311    1.294657
O       2.768291   -0.317022    1.830438
H       0.737107   -1.400061   -1.607951
H       0.047455    0.139466   -2.182291
H       1.625469    0.124941   -1.355528
H      -0.193331   -0.156292    3.060341
H      -1.475842   -0.504842    1.850367
H       0.164413   -2.744831    0.324412
H       1.631282   -2.553969    1.354684
H       1.721030    1.219276    1.018393
