19

C       0.085852    1.424514    0.183287
N      -0.313366    0.075850   -0.192719
C       0.457898   -0.591734   -1.144434
C       0.755874   -1.923576   -1.141127
N       0.430735   -2.910478   -0.209732
O       1.466463   -2.244195   -2.288537
C       1.628773   -1.095439   -2.993692
C       2.393692   -1.187278   -4.265706
C       1.032679   -0.054541   -2.348787
H       1.117110    1.498512    0.565685
H      -0.000687    2.093777   -0.678478
H      -0.596538    1.794520    0.953210
H      -0.463652   -0.523625    0.609577
H      -0.226401   -3.598415   -0.567262
H       1.245616   -3.409523    0.134165
H       1.925283   -1.886569   -4.968030
H       2.441748   -0.205584   -4.742515
H       3.419371   -1.535726   -4.095997
H       1.003703    0.968254   -2.690395
