18

O       0.152989    1.394653    0.125798
C       0.086569    0.010741    0.029125
C       1.063699   -0.638334    0.994379
C       1.347615   -2.070950    0.537412
O       0.163154   -2.723212    0.084670
C      -0.636862   -1.887486   -0.698354
C      -1.328747   -0.645773   -0.064319
N      -1.432028   -0.017393   -1.441354
C      -0.045401   -0.629112   -1.407447
H      -0.521432    1.722688   -0.487969
H       1.992926   -0.060255    1.014556
H       0.642357   -0.615462    2.005676
H       2.083238   -2.054102   -0.281253
H       1.755856   -2.687754    1.341672
H      -1.289962   -2.510420   -1.315776
H      -2.145498   -0.600251    0.658213
H      -2.049134   -0.574783   -2.039994
H       0.629007   -0.556275   -2.262349
