16

C      -1.536780   -0.619035   -0.230865
O      -0.169529   -0.243405   -0.095257
C       0.697600   -0.735280   -1.060889
C       2.035309   -1.197558   -0.566492
C       1.035999   -2.205246   -1.088368
C       0.652032    0.019163   -2.372726
F       0.852388    1.328498   -2.192783
F       1.589500   -0.427466   -3.226675
F      -0.539140   -0.117072   -2.986830
H      -2.017718   -0.118734   -1.077163
H      -1.642777   -1.704524   -0.354297
H      -2.028275   -0.314332    0.695381
H       2.909554   -0.980565   -1.167338
H       2.175399   -1.135530    0.505714
H       0.523680   -2.826697   -0.363349
H       1.228650   -2.674927   -2.045377
