19

C      -0.088619    1.585259    0.211294
C       0.013616    0.083097    0.031975
C      -1.217699   -0.577809   -0.572509
C      -1.496948   -0.100144   -1.985089
O      -2.580206    0.221881   -2.399402
C       1.368344   -0.541464   -0.308060
O       2.510355    0.248886   -0.392720
C       0.760989   -0.736953    1.062678
O       1.380673   -0.016402    2.100553
H       0.852277    2.017970    0.550549
H      -0.353929    2.068623   -0.735104
H      -0.862524    1.837230    0.943972
H      -1.061807   -1.665288   -0.634634
H      -2.112971   -0.410519    0.036087
H      -0.598707   -0.074689   -2.644354
H       1.396138   -1.372314   -1.008227
H       2.697131    0.548553    0.508271
H       0.348138   -1.699234    1.359849
H       2.000173   -0.609116    2.540506
