12

O      -0.001392    0.052174   -0.226301
C      -0.014138    1.220254    0.015498
C      -1.136780    2.239102    0.279508
C      -0.031892    3.245440    0.759600
C       1.086879    2.269517    0.249785
C      -0.057917    4.572235    0.170221
N      -0.078747    5.622130   -0.313578
H      -1.633589    2.551813   -0.643379
H      -1.894874    1.952183    1.010895
H      -0.018588    3.336360    1.847841
H       1.871799    2.003700    0.960557
H       1.550122    2.595361   -0.685928
