16

C      -0.399738    1.237258    0.011676
N       0.100790   -0.126013    0.096762
C       0.650612   -0.570362    1.268208
O       0.680105    0.048948    2.311150
C       0.233049   -0.869788   -1.120383
C      -0.132289   -2.331331   -1.160145
C      -1.010065   -1.319143   -1.849254
H       0.249647    1.857074   -0.619749
H      -1.407618    1.249829   -0.414893
H      -0.417757    1.650276    1.020035
H       1.065051   -1.589319    1.161172
H       1.066613   -0.561616   -1.751557
H       0.486122   -2.987342   -1.761685
H      -0.515363   -2.782146   -0.252782
H      -1.964045   -1.096669   -1.384897
H      -1.008925   -1.272053   -2.931968
