13

O      -0.125272    1.431599    0.019714
C      -0.050747    0.054143    0.029431
C      -0.386273   -0.799595    1.242083
C      -1.580719   -0.178266    1.935303
O      -1.885638    0.121327    3.039309
O      -2.339586   -0.068037    0.781428
C      -1.322827   -0.735766    0.012963
C      -1.684110   -1.795666   -0.948363
O      -2.806106   -2.166021   -1.168411
H       0.573244    1.785477    0.581668
H       0.744659   -0.385781   -0.577777
H       0.240665   -1.597135    1.615587
H      -0.798116   -2.227754   -1.465304
