18

O       0.200952    0.070770   -0.174932
C       0.068207    1.270549   -0.089215
C      -1.104139    2.034990    0.536628
C      -0.866722    3.503433    0.146441
C       0.646675    3.586921   -0.185132
C       1.498232    4.114608    0.998017
C       2.926396    4.063052    0.714130
C       4.093896    3.996940    0.434519
N       0.962698    2.214211   -0.527953
H      -2.054087    1.629644    0.184136
H      -1.068647    1.873470    1.619539
H      -1.443611    3.754471   -0.747456
H      -1.148199    4.213523    0.927691
H       0.827007    4.242707   -1.043758
H       1.197549    5.147414    1.215188
H       1.275437    3.523059    1.895323
H       5.131046    3.950381    0.210875
H       1.885728    1.938621   -0.827294
