17

C      -0.443829    1.399081    0.011197
C       0.194527    0.034533   -0.075317
O       1.488593    0.052811   -0.709555
C       2.076798   -0.755759    0.314853
C       0.804501   -0.638527    1.225670
C       0.981426    0.257798    2.359968
C       1.146877    1.004833    3.286469
C       0.184061   -1.893021    1.624032
C      -0.332243   -2.937854    1.916458
H       0.195861    2.097812    0.554284
H      -0.610745    1.784766   -0.999458
H      -1.410911    1.335282    0.520133
H      -0.471710   -0.680627   -0.575297
H       2.269019   -1.783604   -0.014571
H       2.987218   -0.312782    0.728061
H       1.286658    1.657061    4.113000
H      -0.787380   -3.857749    2.189549
