16

N      -0.068045    1.374744    0.039023
C       0.083223    0.026954   -0.020021
O       1.161228   -0.536996   -0.064164
C      -1.233702   -0.757880   -0.056894
N      -2.362290    0.063165    0.369508
C      -1.489734   -1.470880   -1.413234
O      -1.542858   -2.762380   -0.788774
C      -1.127612   -2.212538    0.479871
H       0.750440    1.954859   -0.040253
H      -0.992525    1.768493   -0.032059
H      -3.235582   -0.417924    0.175005
H      -2.330735    0.206741    1.376200
H      -2.432607   -1.195740   -1.903514
H      -0.664833   -1.391086   -2.130119
H      -0.109544   -2.512201    0.744353
H      -1.827326   -2.460920    1.287564
