14

N       0.059889    1.322343    0.266500
C      -0.035334    0.002780    0.067658
C      -1.234535   -0.680443    0.035631
C      -1.416494   -2.058575   -0.200705
N      -0.583850   -3.070567   -0.145316
C       0.725267   -2.913545    0.171814
N       1.556550   -1.920294    0.083597
C       1.306777   -0.620399   -0.253104
O       2.165184    0.123575   -0.700863
H       0.947674    1.738414    0.016016
H      -0.747613    1.902654    0.417458
H      -2.145040   -0.088418    0.096521
H      -2.445776   -2.343362   -0.429926
H       1.175822   -3.841465    0.530871
