21

C      -0.152431    1.554795    0.017071
C      -0.187382    0.098398   -0.094548
C      -0.193409   -1.104859   -0.173763
C      -0.204460   -2.535616   -0.280420
C      -0.042252   -3.401462    0.959408
C      -1.372969   -3.338759    0.269858
C       1.246392    2.111361    0.244897
C       2.146606    2.395869   -0.926628
C       1.556166    3.536707   -0.131371
H      -0.572318    2.006220   -0.892558
H      -0.810953    1.872140    0.837566
H       0.246587   -2.930333   -1.186624
H       0.551520   -4.303420    0.861972
H       0.065924   -2.887061    1.906740
H      -2.169625   -2.782011    0.748488
H      -1.701052   -4.197348   -0.305258
H       1.729255    1.729639    1.139557
H       3.206618    2.190786   -0.827371
H       1.752352    2.214482   -1.921370
H       0.768187    4.122342   -0.594550
H       2.210799    4.111333    0.514521
