15

N      -0.029184    1.297616    0.034340
C       0.022424   -0.057403   -0.008529
O       1.052883   -0.717330   -0.049058
C      -1.299064   -0.708190   -0.003636
N      -2.491206   -0.151480    0.042636
C      -3.384105   -1.191283    0.042587
C      -2.713242   -2.400433   -0.014077
N      -3.148358   -3.722128   -0.117726
N      -1.386637   -2.074030   -0.046495
H       0.827563    1.822584    0.020343
H      -0.921434    1.763078    0.056951
H      -4.451130   -1.031555    0.082082
H      -4.156540   -3.785118   -0.065029
H      -2.742726   -4.337416    0.578963
H      -0.585534   -2.680508   -0.127272
