21

O       0.690410    0.539665   -0.753406
C      -0.064483   -0.270423    0.108838
C       0.058144   -0.098447    1.647554
C      -1.473628   -0.371062    1.759817
C      -1.597560   -0.057029    0.236901
C      -1.832856   -1.798604    2.139533
C      -1.761503   -2.152641    3.644235
O      -3.182429   -2.388740    3.706212
C      -3.339484   -2.113168    2.299795
H       0.518871    1.459610   -0.525052
H       0.164929   -1.297048   -0.190570
H       0.743337   -0.758960    2.186014
H       0.300900    0.938374    1.904444
H      -2.015889    0.316358    2.416461
H      -1.859504    0.992417    0.063789
H      -2.256665   -0.683914   -0.369976
H      -1.306317   -2.513480    1.500541
H      -1.185304   -3.050711    3.900312
H      -1.450812   -1.332301    4.305082
H      -4.017146   -1.268103    2.118565
H      -3.709510   -2.987566    1.749689
