17

O      -0.047770    1.422145    0.101472
C       0.019637    0.004167    0.009596
C      -1.432270   -0.528814   -0.113531
C      -1.294750   -1.907313   -0.769100
C      -0.035015   -1.808789   -1.639009
O       0.326912   -2.616911   -2.452063
C       0.683003   -0.499430   -1.296629
C       0.696025   -0.562235    1.182873
C       1.275029   -1.009893    2.136985
H       0.814335    1.744848    0.385386
H      -1.940319   -0.540206    0.851478
H      -1.965412    0.166654   -0.769942
H      -1.114840   -2.690809   -0.022668
H      -2.156331   -2.220340   -1.362944
H       0.459313    0.229065   -2.086282
H       1.765185   -0.630275   -1.247261
H       1.778749   -1.405872    2.984499
