17

C       0.062080    1.565410    0.155779
C       1.510386    1.921857   -0.145743
C       2.150737    0.871320   -0.678728
C       3.441804    0.263927   -0.312624
C       3.177679   -0.964567    0.174794
C       1.707665   -1.302657    0.001469
O       0.752514   -0.731079    0.996723
C       0.054529    0.035263   -0.037795
C       1.197227   -0.273793   -0.998035
H      -0.193384    1.843842    1.185561
H      -0.685782    2.040011   -0.496206
H       1.995974    2.788444    0.288915
H       4.395233    0.776103   -0.267405
H       3.894527   -1.613515    0.663508
H       1.491436   -2.363910   -0.146988
H      -0.935051   -0.391684   -0.232933
H       1.064059   -0.510478   -2.055134
