17

O      -0.038088    1.297939    0.060273
C       0.068825   -0.073787    0.035887
C      -1.053853   -1.068524    0.126773
C      -0.270103   -0.949947   -1.175293
C       0.635686   -2.164394   -0.889115
O       0.525212   -3.209700   -1.792303
C       1.988689   -1.620627   -0.353980
C       1.111554   -0.977092    0.747080
C       0.019244   -2.103714    0.575192
H       0.593610    1.667227   -0.567443
H      -2.108799   -0.945430    0.328635
H      -0.582137   -0.542601   -2.128185
H       1.077593   -3.935958   -1.483857
H       2.613779   -2.427233    0.047775
H       2.589497   -0.974056   -1.002704
H       1.502958   -0.667955    1.714484
H      -0.102460   -2.948391    1.248988
