14

N      -0.148721    1.071372    0.265477
C      -0.158809   -0.250859   -0.078504
O       0.802694   -0.979052    0.010351
C      -1.497665   -0.718194   -0.674233
O      -1.532596   -2.133101   -0.798974
C      -1.681327   -2.797875    0.366635
O      -1.853538   -2.269724    1.435975
C      -1.636988   -4.225109    0.153084
C      -1.610460   -5.420014    0.034758
H       0.671386    1.409658    0.744433
H      -1.007166    1.575750    0.412462
H      -2.334976   -0.366446   -0.063688
H      -1.599740   -0.332228   -1.691365
H      -1.582322   -6.477241   -0.070944
