17

O       0.126993    0.049226   -0.158848
C       0.034650    1.250638   -0.070371
C      -1.127010    2.058014    0.520076
C      -0.839827    3.511576    0.110029
C       0.685499    3.547855   -0.174816
C       1.496944    4.080523    1.037126
C       2.935614    3.990383    0.804564
N       4.065188    3.898937    0.577971
N       0.979326    2.163775   -0.476197
H      -2.079858    1.674345    0.152376
H      -1.120502    1.914442    1.606063
H      -1.377180    3.758359   -0.809045
H      -1.128934    4.245634    0.865689
H       0.913375    4.186015   -1.034929
H       1.231591    5.126542    1.227257
H       1.245800    3.507099    1.936530
H       1.883197    1.854786   -0.801072
