18

C       0.109335    1.449257    0.711242
C      -0.067574    0.098381    0.086677
C      -1.222787   -0.567425   -0.012811
C      -1.291345   -1.909534   -0.695287
C       0.031763   -2.657122   -0.507066
O       0.087769   -3.829759   -1.270161
C       1.223593   -1.762183   -0.857088
O       2.200310   -2.205253   -1.436010
N       1.117526   -0.467241   -0.435945
H       0.807039    1.408876    1.556355
H       0.516255    2.169245   -0.010567
H      -0.846335    1.835000    1.069473
H      -2.123833   -0.121702    0.390665
H      -2.108047   -2.518709   -0.297715
H      -1.484050   -1.796831   -1.772631
H       0.141291   -2.881554    0.571355
H       0.989787   -3.854409   -1.628433
H       1.923582    0.120355   -0.594705
