20

C       0.540738    1.534982   -0.218229
C      -0.052542    0.151841    0.077402
C       0.309469   -0.881860   -1.007751
C       1.612398   -1.469529   -0.508414
N       2.464259   -2.093452   -1.199344
O       1.734080   -1.212165    0.832048
C       0.581688   -0.510531    1.295804
C       0.671358    0.064612    2.667052
C      -0.193255   -1.159925    2.405742
H       1.626352    1.478117   -0.349631
H       0.112148    1.950256   -1.135692
H       0.338754    2.236365    0.596751
H      -1.134665    0.236540    0.208563
H      -0.438687   -1.680813   -1.057919
H       0.422548   -0.466632   -2.009907
H       3.244625   -2.398739   -0.614802
H       1.599887   -0.085898    3.205765
H       0.183111    1.013873    2.860092
H      -1.272190   -1.046010    2.421826
H       0.173655   -2.112451    2.770809
