18

C      -0.640927    1.369704    0.560397
C      -0.345717   -0.046317    0.087393
C       1.122503   -0.437639    0.248846
O      -1.177623   -0.919832    0.878902
C      -1.570897   -2.096291    0.264499
C      -2.738617   -1.907097   -0.701585
O      -3.240644   -0.853500   -0.988641
C      -3.229109   -3.174957   -1.293142
N      -3.584234   -4.181370   -1.738359
H      -0.039863    2.094336    0.003244
H      -1.698406    1.600492    0.413895
H      -0.405581    1.470626    1.624592
H      -0.638664   -0.137410   -0.967041
H       1.427287   -0.340520    1.295297
H       1.302663   -1.470907   -0.065122
H       1.760484    0.209795   -0.360883
H      -0.763969   -2.607189   -0.290634
H      -1.897812   -2.803189    1.040005
