16

O      -0.037905    1.353746    0.007375
N       0.056473   -0.044475    0.002691
C      -1.112294   -0.620749    0.009147
C      -2.371145    0.119484    0.019661
C      -3.641364   -0.343039    0.027958
C      -4.145470   -1.693510    0.029021
C      -3.436084   -2.846179    0.020894
C      -2.005088   -3.009330    0.009285
C      -1.030184   -2.072996    0.004365
H       0.888262    1.615149    0.001508
H      -2.241084    1.194677    0.020788
H      -4.415377    0.421502    0.035058
H      -5.228548   -1.780664    0.037261
H      -4.004820   -3.772555    0.023229
H      -1.666386   -4.042172    0.003810
H      -0.001477   -2.423868   -0.004506
