12

C      -0.013313    1.481928    0.015787
C      -0.007735   -0.017565   -0.002975
N       0.141038   -0.626439   -1.193738
C       0.139229   -1.948380   -1.155337
C      -0.009113   -2.627376    0.054566
N      -0.152459   -1.970534    1.200282
N      -0.152161   -0.640737    1.173793
H       0.923886    1.867349   -0.397740
H      -0.821949    1.863588   -0.615323
H      -0.141072    1.845459    1.035254
H       0.256861   -2.481605   -2.096467
H      -0.014180   -3.710940    0.114615
