19

C       0.047170    1.499283   -0.100108
O       1.490918    1.450768    0.145454
C       1.276928    0.193240    0.844312
C       1.813952   -1.214275    0.606980
C       0.599203   -1.980328    1.263129
C      -0.691033   -1.113169    0.891936
C       0.000731   -0.038235    0.054094
C       0.570269   -0.717811   -1.221436
O       1.755939   -1.414050   -0.794113
H      -0.467543    2.052082    0.696342
H      -0.186492    1.935435   -1.075097
H       1.125938    0.391360    1.913761
H       2.796316   -1.515595    0.970837
H       0.556420   -2.984182    0.836390
H       0.715008   -2.078012    2.346066
H      -1.438763   -1.701583    0.353863
H      -1.159751   -0.705518    1.791536
H      -0.148285   -1.431758   -1.643925
H       0.848411    0.001282   -1.997432
