13

C       0.074649    1.510732   -0.145367
N       0.045285    0.069745   -0.282170
C      -1.030288   -0.573807   -0.129642
O      -1.059333   -1.948067   -0.257606
C       0.092140   -2.658859   -0.012176
O       0.148775   -3.823850   -0.245867
C      -2.338965   -0.060134    0.149821
C      -3.427311    0.396113    0.379896
H       0.779041    1.775233    0.650895
H       0.468345    1.940965   -1.072423
H      -0.899138    1.963875    0.075065
H       0.885499   -2.035901    0.420161
H      -4.394008    0.788320    0.584292
