19

C       0.207841    1.589572   -0.202297
C      -0.049199    0.087764    0.019779
C      -1.548632   -0.260471    0.146204
C      -2.199300    0.308672    1.404729
O      -3.593489   -0.019060    1.428839
C      -4.003233   -0.986278    2.272675
O      -5.136933   -1.352589    2.334122
C       0.523352   -0.689781   -1.152912
O       1.367231   -1.542561   -1.071884
H       1.278544    1.790339   -0.302710
H      -0.289047    1.942990   -1.112845
H      -0.161801    2.189305    0.633345
H       0.485348   -0.256993    0.912261
H      -2.096630    0.106398   -0.730065
H      -1.670356   -1.350333    0.161505
H      -1.705915   -0.077800    2.306577
H      -2.145228    1.399435    1.431871
H      -3.179422   -1.386633    2.896966
H       0.086415   -0.403856   -2.140067
