21

C       0.782651    1.016463    0.585194
O       0.128315   -0.092272   -0.006484
C       0.714648   -0.553417   -1.227138
C       1.316803   -1.939872   -0.968589
O       2.187707   -1.933182    0.144491
C      -0.355322   -0.595549   -2.320324
C      -0.963322    0.783694   -2.619625
C      -2.125619    0.693937   -3.579425
O      -2.224589    1.310202   -4.608854
H       1.833649    0.793928    0.811834
H       0.745297    1.905415   -0.060528
H       0.254478    1.238424    1.516390
H       1.522251    0.130854   -1.522751
H       0.500071   -2.667082   -0.832410
H       1.906802   -2.258938   -1.833930
H       1.646478   -1.665719    0.895962
H       0.084989   -1.018684   -3.231570
H      -1.148463   -1.283308   -2.000035
H      -1.343606    1.196536   -1.675145
H      -0.223453    1.477144   -3.030500
H      -2.925186   -0.016565   -3.259638
