16

O       0.013048    1.378483    0.168008
C      -0.004297   -0.008066    0.004891
C      -1.429962   -0.568860   -0.141163
C      -1.388016   -2.075516   -0.208724
N      -2.248166   -2.802804    0.360974
O      -0.310661   -2.626929   -0.865019
C       0.466672   -1.826468   -1.747973
C       0.749991   -0.420185   -1.243818
O       1.460393    0.351431   -1.845528
H       0.670036    1.711951   -0.463106
H       0.475485   -0.512962    0.863426
H      -2.056707   -0.275994    0.700560
H      -1.886274   -0.154463   -1.049496
H      -2.044213   -3.790901    0.195993
H       1.409933   -2.356827   -1.903040
H      -0.022912   -1.736287   -2.728369
