20

C      -0.327740    1.488690    0.163547
C       1.091756    1.047347   -0.112538
C      -0.001577    0.027805   -0.017040
C      -0.150799   -0.950631    1.133613
O      -1.359033   -1.647245    0.855619
C      -1.515935   -1.750650   -0.561034
C      -0.519760   -0.771684   -1.187159
C      -0.592515   -0.274809   -2.575201
N       0.385898   -1.320536   -2.214081
H      -0.571251    1.836517    1.162403
H      -0.863887    1.995108   -0.631930
H       1.511738    1.267419   -1.090465
H       1.815904    1.098398    0.694183
H       0.705110   -1.645961    1.170560
H      -0.250183   -0.471568    2.112374
H      -1.303726   -2.769177   -0.910896
H      -2.556780   -1.504147   -0.800626
H      -1.394641   -0.603972   -3.231209
H      -0.232369    0.730624   -2.784950
H       1.309301   -0.902121   -2.115808
