16

C      -0.017685    1.535872    0.070780
C       0.021756    0.047891   -0.015542
C       0.050462   -0.757316   -1.119864
O       0.047192   -0.283390   -2.396918
C       0.083137   -2.132057   -0.699254
C       0.073357   -2.134347    0.661919
N       0.036426   -0.815838    1.096086
C       0.017339   -0.443768    2.431773
O       0.030836   -1.224040    3.350972
H       0.851847    1.955879    0.591355
H      -0.018965    1.937573   -0.944959
H      -0.917087    1.909976    0.575420
H       0.071748   -1.027132   -3.005249
H       0.110260   -3.001735   -1.339437
H       0.088729   -2.928867    1.387631
H      -0.012314    0.650800    2.559751
