21

C      -0.014665    1.569445   -0.003994
C       0.045940    0.034350    0.006620
C       0.676726   -0.529148   -1.276838
C       0.938828   -2.034429   -1.158931
O       1.433494   -2.586249   -2.362314
C       1.915266   -2.327745   -0.003490
O       3.270422   -2.102667   -0.443766
C       1.599869   -1.526877    1.228164
C       0.772844   -0.479285    1.225993
H       0.991606    2.000882   -0.046732
H      -0.572538    1.930549   -0.873632
H      -0.506205    1.954555    0.895657
H      -0.991862   -0.332286    0.064988
H       0.036563   -0.339186   -2.143682
H       1.629033   -0.014854   -1.472120
H      -0.010588   -2.542199   -0.941037
H       2.395054   -2.492832   -2.303574
H       1.884647   -3.400643    0.216819
H       3.457308   -1.165274   -0.321701
H       2.099070   -1.830473    2.145002
H       0.590056    0.055062    2.157176
