16

N       0.334754    0.931125    0.611025
C       0.110186   -0.176790    0.073486
O       0.913980   -0.977283   -0.720251
C      -0.105075   -2.026056   -0.759358
C       0.179236   -3.182960    0.181449
O       0.702689   -2.739681    1.435158
C      -0.686572   -3.060832    1.373466
C      -1.579606   -1.834956    1.269971
C      -1.091497   -1.103614    0.004577
H       1.288255    1.249357    0.431053
H      -0.322276   -2.328661   -1.784800
H       0.567037   -4.128902   -0.186222
H      -0.993083   -3.921358    1.964026
H      -2.624630   -2.144080    1.161727
H      -1.508329   -1.205429    2.161641
H      -1.903232   -0.678369   -0.586842
