19

C      -0.395867    1.428002    0.012246
C       0.066342   -0.034403   -0.028868
C       0.895875   -0.395171   -1.268556
C       1.416761   -1.851900   -1.101915
C       2.517512   -1.222381   -0.220649
C       2.366772    0.071167   -1.050692
O       2.028142   -1.011069    1.118510
C       0.828578   -0.387034    1.261242
O       0.411526   -0.146564    2.360759
H       0.451619    2.117884   -0.055171
H      -1.069078    1.637123   -0.824550
H      -0.921735    1.628002    0.947734
H      -0.829572   -0.670001   -0.007607
H       0.385601   -0.118276   -2.193716
H       0.762657   -2.592143   -0.633361
H       1.830762   -2.254557   -2.029270
H       3.486834   -1.705574   -0.103100
H       2.953406    0.025861   -1.970942
H       2.554471    1.018109   -0.538450
