20

C       0.059226    1.563080   -0.119440
C       0.006248    0.039351    0.019614
C      -1.420132   -0.514561   -0.041613
C      -1.473615   -2.046861    0.097840
C      -2.871120   -2.575497    0.107409
N      -3.813394   -2.305243    0.997934
C      -4.883133   -3.013458    0.543231
N      -4.676324   -3.704828   -0.564721
N      -3.379281   -3.408237   -0.828084
H       1.088070    1.932369   -0.068184
H      -0.364423    1.888653   -1.075934
H      -0.511274    2.052339    0.677447
H       0.612343   -0.422850   -0.771367
H       0.468990   -0.259417    0.969554
H      -2.030502   -0.073929    0.754468
H      -1.891368   -0.221546   -0.988807
H      -0.908171   -2.520162   -0.714203
H      -0.984560   -2.341000    1.034154
H      -5.840337   -3.021170    1.043129
H      -2.929592   -3.806914   -1.635963
