19

C      -0.066885    1.518820   -0.057378
C       0.016786   -0.004837    0.009988
O       0.629236   -0.440642   -1.189017
C       0.914130   -1.833429   -1.241510
C       1.506292   -2.145809   -2.605123
C       1.841605   -2.243594   -0.088026
O       2.612966   -3.177067   -0.178428
C       1.659701   -1.476762    1.159578
C       0.769178   -0.481383    1.223564
H       0.936694    1.951684   -0.090850
H      -0.604718    1.818584   -0.959876
H      -0.594514    1.915907    0.814577
H      -1.013173   -0.411927    0.068010
H      -0.023293   -2.406943   -1.103694
H       2.397337   -1.535198   -2.775462
H       1.795080   -3.197118   -2.648669
H       0.779656   -1.931435   -3.392151
H       2.233854   -1.807561    2.019298
H       0.556926    0.023566    2.163523
