19

O       0.009161   -0.065634    0.621916
C      -0.038787    1.041706    0.138971
C      -1.374064    1.757922   -0.038821
C      -1.775072    1.988474   -1.513300
C      -1.097250    3.183426   -2.215581
C       0.419009    3.076215   -2.270004
O       1.013992    2.925042   -3.312120
C       1.163652    3.123528   -0.938512
C       1.261183    1.726411   -0.297950
H      -2.119237    1.126784    0.450702
H      -1.351547    2.720169    0.490302
H      -1.591634    1.073299   -2.088599
H      -2.856265    2.156140   -1.544770
H      -1.461969    3.264704   -3.242397
H      -1.364247    4.105411   -1.681765
H       2.173830    3.486702   -1.142862
H       0.679512    3.823866   -0.249580
H       1.894907    1.772186    0.594985
H       1.768455    1.039102   -0.984691
