21

C      -0.073643   -1.237838    0.005925
C      -0.055547   -0.035727    0.006943
C      -0.007765    1.422199    0.001736
C       1.423996    1.998889    0.004868
C       1.411896    3.528597   -0.143184
C       2.834110    4.093617   -0.018987
C       3.499028    3.569261    1.254681
O       3.496595    2.152842    1.300118
C       2.186668    1.616874    1.282001
H      -0.099460   -2.299228    0.005023
H      -0.540603    1.798348   -0.881286
H      -0.556229    1.809116    0.871948
H       1.970042    1.567815   -0.843921
H       0.959937    3.817693   -1.099225
H       0.778737    3.959884    0.646245
H       3.433644    3.783334   -0.883334
H       2.819607    5.189527   -0.007928
H       4.547857    3.874853    1.311687
H       2.980090    3.975546    2.141430
H       1.620055    1.968641    2.164482
H       2.292660    0.532198    1.361640
