16

O      -0.110394    1.357842   -0.284444
C       0.001914   -0.021741   -0.041998
C       0.071047   -0.482126    1.447065
O      -1.190209   -1.168134    1.334827
C      -1.358714   -0.725368   -0.009474
C      -2.644985   -0.208828   -0.554436
C      -2.056371   -1.521245   -1.055007
C       1.003710   -0.634606   -0.922401
N       1.808986   -1.091118   -1.614743
H       0.773145    1.738409   -0.350547
H       0.888482   -1.158405    1.713287
H       0.027124    0.368075    2.136361
H      -3.504571   -0.263078    0.104669
H      -2.608042    0.662509   -1.198426
H      -1.623508   -1.557914   -2.049463
H      -2.527913   -2.441155   -0.727000
