15

O      -0.587179    1.251747   -0.964992
C       0.087445    1.040854    0.004492
C       1.256508    1.941733    0.428634
O       2.189734    1.450897    1.017310
C       1.184335    3.442788    0.101740
O       0.098023    3.980804    0.137030
C       2.464625    4.130407   -0.154769
C       2.441156    5.254680   -1.190573
C       2.562630    5.598655    0.248558
H       0.006559    0.123062    0.625255
H       3.354234    3.519092   -0.080088
H       3.310854    5.339063   -1.831410
H       1.484786    5.427084   -1.671399
H       1.687847    6.003292    0.744282
H       3.519510    5.929650    0.634441
