17

N      -0.108080    1.346402   -0.075289
C      -0.126362   -0.041860   -0.048393
C      -1.217694   -0.900337    0.016994
C      -2.648768   -0.476967    0.027983
O      -2.928148    0.536149   -0.954562
C      -0.627521   -2.193166    0.094027
N      -1.299412   -3.408145    0.253013
N       0.696825   -2.154466    0.071517
N       0.981405   -0.811272   -0.012810
H       0.657022    1.745482   -0.603544
H      -0.999031    1.701093   -0.405720
H      -3.310880   -1.345196   -0.107843
H      -2.937275   -0.011160    0.978024
H      -2.632378    0.184149   -1.801842
H      -2.121410   -3.490401   -0.331395
H      -0.675606   -4.188584    0.087440
H       1.940932   -0.515799    0.006588
