18

C       0.013703    1.490742    0.084218
C      -0.032848    0.003498   -0.039163
C      -0.063798   -0.752181   -1.173005
C      -0.034235   -2.156556   -0.798244
O      -0.047917   -3.168080   -1.477512
C       0.004660   -2.149213    0.718830
C      -0.662245   -3.268266    1.479616
C       0.836206   -3.168575    1.458360
N      -0.087235   -0.764419    1.108048
H       0.894545    1.810014    0.654847
H       0.055632    1.960737   -0.899319
H      -0.868973    1.863559    0.615281
H      -0.110087   -0.377846   -2.184021
H      -1.182297   -3.007653    2.394467
H      -1.127813   -4.031913    0.865658
H       1.387019   -3.865450    0.835328
H       1.343602   -2.847674    2.362707
H       0.409304   -0.444238    1.927100
