18

O      -0.190852    1.289839   -0.013459
N      -0.001237   -0.110580   -0.001617
C      -1.117376   -0.713334    0.022036
C      -2.547967   -0.183386    0.022922
C      -3.264809   -1.550627    0.015934
C      -2.453871   -2.352275    1.078561
C      -1.300928   -2.201927    0.026247
C      -2.447488   -2.322092   -1.055188
O      -2.958807   -3.617109   -1.254842
H       0.715766    1.613831   -0.022849
H      -2.764633    0.416402    0.912097
H      -2.752859    0.435499   -0.856600
H      -4.353734   -1.555282   -0.008145
H      -2.303940   -1.899491    2.061719
H      -2.789763   -3.383564    1.166997
H      -0.410629   -2.828281    0.013260
H      -2.268567   -1.810356   -2.011130
H      -2.314184   -4.118657   -1.763966
