17

C       0.006327    1.562352    0.044624
C       0.025047    0.056116    0.014929
C      -1.129822   -0.668820    0.052691
N      -2.397870   -0.150695    0.159872
O      -1.155478   -2.015839    0.037747
C       0.016416   -2.804884   -0.000615
N      -0.088907   -4.071533    0.002923
C       1.246532   -2.059732   -0.047092
C       1.234362   -0.704136   -0.039422
H       1.026026    1.955860    0.033161
H      -0.510419    1.996886   -0.823081
H      -0.483916    1.956066    0.944134
H      -2.518215    0.794582   -0.168593
H      -3.136476   -0.782355   -0.112034
H      -1.067279   -4.355457    0.040274
H       2.158528   -2.638851   -0.087373
H       2.174804   -0.160731   -0.074470
