27

C      -0.142313    1.675482   -0.004641
C       0.019426    0.153099    0.068054
C      -1.329395   -0.573723   -0.014687
C      -1.313140   -2.125319    0.011234
C      -0.537387   -2.645706    1.235014
C      -2.794400   -2.589179    0.077459
C      -3.060258   -4.087419   -0.107024
C      -0.635295   -2.676618   -1.252987
O      -1.389445   -2.286468   -2.394270
H       0.825377    2.184095    0.053044
H      -0.623577    1.977706   -0.941384
H      -0.763232    2.047303    0.818298
H       0.676728   -0.173046   -0.747462
H       0.535026   -0.106671    1.000059
H      -1.959498   -0.229839    0.817594
H      -1.838460   -0.261676   -0.933826
H      -0.930790   -2.204130    2.157073
H      -0.614306   -3.733360    1.328519
H       0.527684   -2.399756    1.177879
H      -3.199481   -2.266643    1.045517
H      -3.356390   -2.044789   -0.688359
H      -4.125584   -4.299801    0.029282
H      -2.789266   -4.417025   -1.114302
H      -2.513447   -4.704740    0.613268
H       0.396049   -2.297825   -1.315448
H      -0.569540   -3.773016   -1.183359
H      -0.944997   -2.620738   -3.178156
