15

C       0.422273    1.408946    0.058960
N       0.564758    0.002792   -0.264982
C      -0.405669   -0.700964   -0.912565
O      -1.470170   -0.237418   -1.279825
C      -0.051855   -2.099895   -1.136219
C       0.190182   -3.259775   -1.345530
C       0.468130   -4.668594   -1.607214
C       1.783479   -5.096145   -1.112785
N       2.816012   -5.438382   -0.726519
H       1.202114    2.007052   -0.424639
H      -0.553104    1.731738   -0.305753
H       0.472908    1.572512    1.140824
H       1.408245   -0.483437   -0.007164
H      -0.301051   -5.298576   -1.142210
H       0.418192   -4.870112   -2.685010
