13

N      -0.011659    1.402056    0.120238
C      -0.026803    0.042250    0.042082
C      -1.152792   -0.745434    0.018198
O      -2.372504   -0.158592    0.022999
N      -1.139671   -2.102418   -0.011013
N      -0.037260   -2.751960   -0.026309
N       1.095199   -2.024413   -0.017336
C       1.247454   -0.640751    0.006385
O       2.342990   -0.097008   -0.009214
H       0.880453    1.825668   -0.089613
H      -0.841937    1.904330   -0.146649
H      -3.024506   -0.872251   -0.003039
H       1.940915   -2.579447   -0.041363
