17

O       0.056627    1.382471   -0.114276
C       0.065766   -0.022249    0.055429
C      -1.351015   -0.579901    0.085399
O      -2.005208   -0.188459   -1.144802
C      -2.775603   -1.280662   -1.582281
C      -2.061018   -2.603738   -1.808076
O      -0.800630   -2.580828   -1.140720
C      -1.473238   -2.100167    0.069820
C      -2.864693   -2.367024   -0.550253
H      -0.447617    1.549079   -0.919012
H       0.625503   -0.531177   -0.739982
H       0.561444   -0.221608    1.011974
H      -1.903668   -0.153533    0.937454
H      -3.621610   -1.006884   -2.201056
H      -2.184193   -3.272159   -2.652483
H      -1.151820   -2.633435    0.964824
H      -3.737968   -2.824435   -0.106909
