18

C      -0.008033    1.521472    0.130391
C       1.417688    2.103706   -0.021914
C       2.178401    1.375776   -1.152261
O       2.215745   -0.012309   -0.802297
C       0.904853   -0.472265   -1.149655
C      -0.044696   -0.018411   -0.018899
C       0.624591    0.274521   -2.447300
C       1.379110    1.369300   -2.448872
H      -0.430246    1.813795    1.097166
H      -0.653433    1.965142   -0.633945
H       1.369608    3.183281   -0.207638
H       1.992361    1.956745    0.899384
H       3.206715    1.736133   -1.248991
H       0.934080   -1.561678   -1.244353
H       0.298483   -0.501331    0.902868
H      -1.070892   -0.358213   -0.202594
H      -0.122410   -0.019693   -3.173196
H       1.387177    2.170699   -3.176328
