19

O       0.016175    1.399927    0.206663
C       0.051339    0.012829   -0.080807
C      -1.346894   -0.570733   -0.103284
C      -1.563596   -2.094653    0.048562
C      -2.728611   -1.614644    0.947346
O      -1.989898   -0.375642    1.202937
C      -3.928039   -1.278679    0.085092
C      -3.691188   -0.466328   -0.944541
C      -2.278990    0.029751   -1.172913
H      -0.475960    1.490368    1.031815
H       0.530421   -0.098082   -1.060172
H       0.654425   -0.534497    0.659573
H      -1.805869   -2.686645   -0.835069
H      -0.756875   -2.555926    0.622734
H      -2.962063   -2.151726    1.868198
H      -4.906835   -1.685930    0.313254
H      -4.474008   -0.140394   -1.623108
H      -2.229059    1.123481   -1.117937
H      -1.928922   -0.247558   -2.176949
