19

C       0.219791    1.579396   -0.216534
C       0.095163    0.132871   -0.121674
C      -0.014714   -1.063474   -0.031895
C      -0.113658   -2.511071    0.024789
O       0.165318   -3.111733    1.332070
C      -1.016388   -3.915454    1.227495
C      -2.254147   -3.075612    1.251523
C      -2.410243   -1.814090    2.070519
C      -1.469311   -3.226852   -0.042718
H       0.869701    1.968038    0.575197
H       0.653768    1.878777   -1.176827
H      -0.753368    2.073126   -0.120087
H       0.578407   -2.953786   -0.703825
H      -0.934647   -4.958986    1.509646
H      -3.149644   -3.694889    1.203711
H      -1.446305   -1.328758    2.228996
H      -3.077206   -1.099291    1.577936
H      -2.836213   -2.052676    3.051268
H      -1.899437   -3.623891   -0.952284
