14

C      -0.009167    1.425833   -0.058595
N      -0.018022   -0.027738   -0.076469
C      -1.095437   -0.662933   -0.069477
O      -2.375384   -0.095241   -0.029304
C      -3.341530   -1.052987    0.231478
O      -4.467260   -0.770231    0.493954
C      -2.683430   -2.406680    0.133094
O      -2.083005   -2.580088   -1.155772
C      -1.251596   -2.145346   -0.071105
H       0.647602    1.757955    0.751561
H       0.435860    1.780835   -0.994365
H      -0.996981    1.880972    0.062219
H      -3.120119   -3.275228    0.610832
H      -0.440934   -2.796478    0.230662
