19

C       0.078722    1.484609    0.105037
C      -0.011877   -0.043911   -0.024964
O       0.649259   -0.722189    1.042528
C       2.048762   -0.692729    0.994168
C       2.811968    0.364046    1.833709
O       3.561422   -0.671493    2.500137
C       2.720624   -1.701962    1.939560
C      -1.403424   -0.492897   -0.040400
C      -2.555684   -0.829233   -0.073891
H       1.120982    1.813147    0.057614
H      -0.469078    1.964362   -0.710495
H      -0.354351    1.805669    1.055436
H       0.459576   -0.343443   -0.976483
H       2.405739   -0.757747   -0.042606
H       3.463678    1.068232    1.303390
H       2.154744    0.911598    2.521955
H       2.015588   -2.113639    2.673150
H       3.301517   -2.513061    1.488139
H      -3.571314   -1.138879   -0.099803
