13

N      -0.050811   -1.095228   -0.003294
C      -0.007600    0.057877    0.002295
C      -0.005413    1.519409    0.010736
O       1.357887    1.954771   -0.002588
C       1.555381    3.274217    0.002585
C       2.717409    3.985277   -0.007055
C       2.248249    5.322329    0.006158
N       0.940865    5.420903    0.021955
O       0.489064    4.078505    0.019705
H      -0.540698    1.897379   -0.867237
H      -0.520115    1.887159    0.905205
H       3.724962    3.610410   -0.021067
H       2.830447    6.233715    0.004513
