19

C      -0.034272    1.504887    0.044423
C       0.055077   -0.002008    0.004042
C      -0.791902   -0.825526    0.942063
C       0.715811   -0.812255    1.109697
C       1.433898   -1.937202    0.422654
C       1.249783   -1.878658   -0.908981
C       0.443413   -0.671952   -1.320988
C       2.168047   -2.918118    1.132529
C       2.791154   -3.725327    1.775090
H       0.898109    1.967890   -0.298972
H      -0.843252    1.871925   -0.598643
H      -0.232107    1.864650    1.059053
H      -1.378188   -0.280819    1.675651
H      -1.251396   -1.742076    0.585031
H       1.151318   -0.357343    1.992233
H       1.621390   -2.612351   -1.613987
H      -0.432712   -0.944916   -1.924238
H       1.042174    0.006479   -1.946595
H       3.339861   -4.446263    2.328426
