20

O       0.144097    1.367645   -0.141423
C       0.017758   -0.030378    0.011578
C       0.425884   -0.622650    1.383357
C      -0.669198   -0.050732    2.314336
C      -1.942186   -0.035527    1.402121
C      -1.421586   -0.600582    0.059475
C      -1.133085   -2.105398    0.237104
C       0.141245   -2.120620    1.150285
H      -0.352331    1.802330    0.558594
H       0.600581   -0.460582   -0.808924
H       1.445449   -0.402063    1.704308
H      -0.800523   -0.663321    3.210598
H      -0.410747    0.955529    2.661838
H      -2.758278   -0.639933    1.807687
H      -2.338377    0.978554    1.280510
H      -2.049590   -0.360315   -0.800214
H      -1.979407   -2.633687    0.685601
H      -0.931607   -2.581340   -0.727286
H       0.982123   -2.604209    0.644094
H      -0.019826   -2.657086    2.089839
