14

N       0.143798   -1.140648   -0.344913
C       0.072551   -0.001980   -0.146120
C      -0.048922    1.392196    0.093137
C      -1.240205    2.115018    0.075947
N      -0.828806    3.383425    0.358961
C      -0.968340    4.836587    0.606529
C       0.601150    4.859004    0.807195
C       0.513498    3.369023    0.524381
N       1.058767    2.192191    0.377844
H      -2.256102    1.811413   -0.106631
H      -1.342381    5.389870   -0.257210
H      -1.561573    5.070696    1.492723
H       1.145824    5.453012    0.070770
H       0.927804    5.135430    1.811547
