13

O      -0.064541    1.387138    0.113582
C       0.025349    0.037350   -0.003870
C       0.029008   -0.828140   -1.070421
N       0.065406   -2.162451   -0.682724
C       0.069447   -2.077948    0.623093
N       0.085919   -2.874420    1.730985
N       0.064700   -2.132387    2.879049
C       0.043165   -0.884019    2.493632
N       0.048101   -0.790328    1.120593
H       0.798124    1.786279   -0.047707
H       0.008599   -0.553664   -2.114545
H       0.082248   -3.876784    1.780616
H       0.020663   -0.042087    3.163859
