18

O       0.335427    1.251761   -0.538720
C       0.065768   -0.028499   -0.015625
C       0.068576   -0.215018    1.528505
C      -1.349914   -0.854588    1.454067
O      -2.395366   -0.120759    2.066687
C      -2.722485    0.969468    1.215172
C      -2.523316    0.459062   -0.224652
C      -1.400661   -0.576915   -0.081389
H      -0.106698    1.905152    0.013277
H       0.766243   -0.697515   -0.521810
H       0.860264   -0.852852    1.928337
H       0.076850    0.727405    2.085924
H      -1.421313   -1.886292    1.802196
H      -3.748020    1.273703    1.440043
H      -2.068787    1.835129    1.420713
H      -3.435373   -0.027129   -0.580812
H      -2.268781    1.259000   -0.925120
H      -1.535074   -1.432265   -0.744939
