20

C      -0.520828    1.578560   -0.125305
C       0.076865    0.172841   -0.002905
C      -1.047716   -0.875042    0.061514
C       1.032091   -0.169918   -1.190620
C       2.150478   -0.946996   -0.558103
C       2.130134   -0.844264    0.777788
C       0.986529    0.029260    1.257936
C       3.072105   -1.431556    1.665596
N       3.821338   -1.896965    2.417098
H       0.263061    2.341953   -0.172680
H      -1.132097    1.668969   -1.030032
H      -1.162980    1.810227    0.731439
H      -1.666366   -0.841923   -0.841780
H      -0.640035   -1.887236    0.154194
H      -1.700965   -0.695535    0.922018
H       0.523962   -0.731835   -1.983136
H       1.429126    0.738226   -1.666938
H       2.895699   -1.495497   -1.122171
H       1.372025    0.999877    1.595708
H       0.452617   -0.408897    2.107493
