20

C      -0.040169    1.519456    0.033693
C       0.030553   -0.004895    0.038725
C       0.955595   -0.614535   -1.067541
C       1.968338   -1.330743   -0.141300
C       3.218447   -1.926916   -0.723013
C       1.049202   -2.052885    0.878687
C       0.809173   -0.578226    1.248293
O       2.196137   -0.297866    0.884159
H       0.963438    1.940831    0.145054
H      -0.466175    1.894863   -0.902701
H      -0.661758    1.892843    0.855440
H      -0.979462   -0.427194   -0.005472
H       0.438199   -1.301819   -1.743011
H       1.448154    0.156698   -1.666443
H       3.796233   -1.163238   -1.254236
H       3.849756   -2.353167    0.061494
H       2.966043   -2.718987   -1.435756
H       0.214264   -2.656944    0.512127
H       1.625307   -2.582133    1.639232
H       0.537880   -0.244030    2.250598
