12

N       0.083678    1.387912    0.177960
C       0.039125    0.017745    0.028468
N      -1.031189   -0.742786   -0.050854
N      -0.650875   -2.103477   -0.083827
C       0.636233   -2.054548   -0.035189
O       1.699907   -2.910464   -0.044664
C       2.778375   -2.071975    0.026666
N       2.527210   -0.806673    0.079172
N       1.145816   -0.795059    0.042472
H       0.787050    1.845388   -0.388129
H      -0.831780    1.793630    0.031567
H       3.755693   -2.526283    0.033291
