21

C      -0.050098    1.480235    0.148894
C      -0.018130    0.025408    0.092002
C       0.018590   -1.178522    0.035292
C       0.042219   -2.627343   -0.005754
C       0.386433   -3.421035    1.305921
C      -0.847438   -4.340652    1.083926
C      -2.104957   -3.937448    1.889303
C      -2.460412   -2.883549    0.795373
C      -1.304832   -3.413421   -0.098331
H       0.832209    1.918102   -0.331486
H      -0.934399    1.880056   -0.360162
H      -0.075085    1.840283    1.183628
H       0.703631   -2.960590   -0.813168
H       1.358838   -3.917424    1.282744
H       0.329929   -2.815052    2.213847
H      -0.636060   -5.403978    0.962716
H      -2.842696   -4.742544    1.947110
H      -1.929287   -3.562416    2.902398
H      -3.455983   -2.999880    0.361429
H      -2.340228   -1.839044    1.093950
H      -1.583227   -3.779828   -1.087286
