19

C       0.099922    1.562998    0.166356
C      -0.103310    0.064099   -0.093170
C       0.658695   -0.453192   -1.305613
O       0.211694    0.160704   -2.508202
C       2.196343   -0.746305   -1.151210
O       1.825768   -1.888899   -0.294512
C       0.892678   -1.985900   -1.434368
C       2.136749   -1.744246   -2.360825
O       2.066017   -1.364984   -3.687399
H       1.157221    1.804409    0.318973
H      -0.273990    2.186974   -0.655554
H      -0.443593    1.874890    1.062428
H       0.221061   -0.509901    0.776703
H      -1.169611   -0.141159   -0.247726
H       0.220181    1.115685   -2.384368
H       3.004431   -0.100420   -0.803066
H       0.160725   -2.794891   -1.419832
H       2.873391   -2.542230   -2.257285
H       1.382828   -0.681330   -3.743598
