19

C      -0.036232    1.490784   -0.219398
C      -0.029397    0.014371    0.106663
O      -0.059876   -0.445199    1.221448
O       0.015896   -0.702856   -1.035243
C       0.032312   -2.170710   -1.004696
C       1.293806   -2.681325   -0.288670
C      -1.260205   -2.711604   -0.370964
C       0.082431   -2.546042   -2.422036
C       0.123574   -2.900859   -3.568518
H       0.859823    1.752672   -0.788863
H      -0.899738    1.732109   -0.845433
H      -0.072745    2.064703    0.705731
H       1.257871   -2.423561    0.769347
H       1.353890   -3.767325   -0.396998
H       2.185315   -2.242035   -0.742872
H      -2.130783   -2.293210   -0.881948
H      -1.287452   -3.798640   -0.482098
H      -1.298564   -2.453860    0.686973
H       0.159948   -3.205608   -4.585360
