16

C      -0.027473    1.514717   -0.222704
C      -0.034411    0.060383    0.261592
C      -1.406448   -0.572120    0.163810
C      -1.880143   -1.202432   -1.110856
C      -1.582352   -2.086110    0.094153
C      -0.434810   -2.948491    0.074244
N       0.490430   -3.643801    0.062886
H       0.972189    1.950301   -0.136431
H      -0.336460    1.584521   -1.270809
H      -0.712596    2.133361    0.367233
H       0.681533   -0.530597   -0.320665
H       0.309702    0.014269    1.302114
H      -2.172635   -0.079573    0.757646
H      -2.919624   -1.108343   -1.402813
H      -1.179693   -1.257155   -1.936953
H      -2.433810   -2.506051    0.618773
