21

C      -0.005318    1.602613   -0.006319
C       0.048289    0.071185   -0.013480
C       0.728911   -0.560610   -1.233798
C       2.198641   -0.352865   -1.504887
C       1.745388   -1.580130   -0.752099
C       1.732682   -1.566409    0.763895
C       2.172969   -0.316491    1.513076
C       0.714948   -0.558177    1.226070
O      -0.128350   -0.862545    2.301162
H       0.998341    2.038930   -0.028395
H      -0.552516    1.983775   -0.874388
H      -0.512090    1.973166    0.892245
H      -0.981189   -0.307112    0.010145
H       0.096687   -0.769053   -2.090447
H       2.523395   -0.498484   -2.530044
H       2.750882    0.424736   -0.990089
H       1.848980   -2.545226   -1.234326
H       1.834415   -2.512707    1.281898
H       2.473131   -0.474217    2.544230
H       2.724301    0.467562    1.007274
H      -0.193227   -0.080396    2.859569
