17

C       0.148864    0.982529    0.360127
O      -0.165413   -0.053263   -0.554813
C      -1.369489   -0.683151   -0.274040
C      -1.595657   -2.057843   -0.737665
C      -1.511464   -1.736837    0.819166
C      -0.325200   -2.632948    0.853381
O       0.206628   -3.264710    1.727754
C      -0.280249   -2.852413   -0.684280
O      -0.450133   -4.217114   -0.988717
H       1.099432    1.412525    0.039406
H      -0.620604    1.768444    0.354756
H       0.250881    0.597517    1.383823
H      -2.236530   -0.019432   -0.311918
H      -2.469737   -2.384288   -1.284766
H      -2.284680   -1.674220    1.575689
H       0.550113   -2.405037   -1.239626
H       0.061412   -4.712716   -0.337037
