18

C       0.431308    1.137334   -0.242696
N       0.168818   -0.267440   -0.013907
C       0.455032   -0.817725    1.095463
C       1.115981   -0.138318    2.204554
N       1.664933    0.414109    3.059645
N       0.088676   -2.122527    1.411446
C       0.027187   -3.145314    0.384172
C       1.046587   -3.236971    1.476897
C       2.514191   -3.027106    1.190517
H       1.044656    1.238263   -1.144957
H      -0.517625    1.645485   -0.449822
H       0.932801    1.654077    0.586188
H      -0.859149   -3.772522    0.404858
H       0.370143   -2.858373   -0.606237
H       0.834225   -3.913499    2.302096
H       2.663662   -2.353551    0.341653
H       3.031379   -2.606910    2.058572
H       2.985302   -3.985557    0.950318
