22

C      -0.167363    1.545482    0.352611
C      -0.095867    0.028649    0.147820
C       0.917090   -0.627750    1.066126
O       0.526515   -0.512297    2.479450
C       0.501379   -1.890991    2.625094
N       0.189115   -2.600452    3.606571
C      -0.225094   -1.956097    4.845405
C       0.957166   -2.177759    1.209111
C       0.068992   -3.070309    0.350686
H       0.795942    2.020703    0.137087
H      -0.917406    1.996050   -0.303666
H      -0.433221    1.780336    1.387081
H      -1.082698   -0.415414    0.318474
H       0.181187   -0.201572   -0.889155
H       1.905221   -0.172543    0.933068
H      -0.303686   -0.864534    4.778854
H      -1.195493   -2.361296    5.152392
H       0.489172   -2.206258    5.638240
H       1.985042   -2.553475    1.193654
H      -0.971855   -2.736816    0.353224
H       0.419972   -3.097752   -0.685698
H       0.088992   -4.090484    0.743739
