21

C      -0.048112    1.560032   -0.289944
C       0.065320    0.041469   -0.168994
C       1.184815   -0.787387   -0.876539
C       2.188504   -0.442637    0.280552
C       2.935753    0.878112    0.451119
C       0.818388   -0.737525    0.968849
C       0.743845   -1.997122    0.028229
C      -0.514495   -2.673903   -0.207378
C      -1.534213   -3.284520   -0.396081
H       0.875621    2.059847   -0.579308
H      -0.793196    1.803226   -1.055054
H      -0.396406    2.008114    0.647896
H      -0.928911   -0.382266   -0.334003
H       1.397768   -0.841437   -1.946536
H       2.910971   -1.255236    0.424655
H       2.305824    1.712810    0.754857
H       3.700842    0.759188    1.225825
H       3.455907    1.163054   -0.470714
H       0.595541   -0.731394    2.038167
H       1.537530   -2.728132    0.208911
H      -2.437971   -3.815863   -0.563750
