15

O      -0.023771    1.255919   -0.267920
C       0.964020    2.160520    0.066990
C       2.272404    2.069263   -0.178242
C       3.061378    0.936558   -0.648564
C       3.281326   -0.209723    0.029152
N       2.860625   -0.503923    1.306186
C       1.637546   -0.592182    1.666338
N       0.531370   -0.759445    0.875444
C      -0.078077   -0.056809    0.029315
H       0.510711    3.081714    0.414550
H       2.813347    3.000437   -0.008114
H       3.668063    1.108298   -1.534471
H       3.999534   -0.920147   -0.376840
H       1.435225   -0.749883    2.727006
H      -0.881961   -0.499171   -0.556839
