18

C      -0.585256    1.302783   -0.089537
C       0.003850   -0.097222   -0.046495
C       1.271929   -0.426198   -0.895526
O       2.007848    0.760967   -1.119208
C       1.820531   -1.279926    0.289815
C       0.794357   -0.575786    1.179541
C       0.997770    0.091109    2.464749
O       0.225122   -1.116202    2.355128
H       0.189035    2.056784    0.067181
H      -1.057627    1.501889   -1.056921
H      -1.351362    1.419479    0.684486
H      -0.765748   -0.846298   -0.267646
H       1.092588   -0.964090   -1.834671
H       2.868481    0.515258   -1.472515
H       1.595530   -2.345040    0.179116
H       2.879819   -1.153944    0.529191
H       1.951597   -0.010506    2.981493
H       0.429126    0.986390    2.711736
