23

C      -0.189132    1.444793   -0.073779
C       0.174726   -0.043361   -0.070605
C       0.821240   -0.499813    1.231715
C      -0.037600   -0.575760    2.558290
C       0.700535   -1.912963    2.921370
C       0.042102   -3.282601    3.182622
C       0.623837   -4.186956    2.044109
C       0.958565   -3.187994    0.936806
C       1.073833   -1.974038    1.465370
H       0.698915    2.070279    0.070930
H      -0.652043    1.738437   -1.020956
H      -0.894795    1.683158    0.729391
H      -0.722383   -0.649231   -0.249993
H       0.859416   -0.256381   -0.901855
H       1.723096    0.095498    1.429933
H       0.051650    0.258502    3.258630
H      -1.093720   -0.749201    2.328558
H       1.545417   -1.714303    3.592446
H       0.232515   -3.684765    4.181987
H      -1.044566   -3.206441    3.060268
H       1.512005   -4.738216    2.385320
H      -0.095551   -4.943317    1.710940
H       1.007048   -3.461367   -0.111028
