21

C      -0.185781    1.626949    0.153313
C       0.015633    0.117683    0.117509
C       1.175394   -0.540955   -0.701060
C       2.154164   -0.048523    0.404820
C       0.919064   -0.619329    1.161228
C       0.972621   -1.850348    0.166394
C      -0.258487   -2.746308   -0.040735
C       2.133785   -2.727292    0.289636
C       3.036892   -3.517613    0.381031
H       0.731280    2.200723    0.301673
H      -0.639286    1.967428   -0.784418
H      -0.876140    1.894496    0.961254
H      -0.960068   -0.344517   -0.036090
H       1.327270   -0.513131   -1.782219
H       3.088935   -0.597648    0.510347
H       2.322729    1.024611    0.473221
H       0.773385   -0.682533    2.241755
H      -1.192690   -2.195236   -0.150299
H      -0.121358   -3.360585   -0.935822
H      -0.365702   -3.428394    0.808176
H       3.845789   -4.200427    0.463927
