17

O      -0.077530    0.186320   -0.877862
C      -0.094240    1.259440   -0.350046
C      -1.197129    2.227599    0.106803
C      -1.534588    2.136875    1.632048
C      -0.513952    3.275051    1.935134
C      -0.082258    3.295485    0.445282
C       0.988875    2.257082    0.068642
C       2.330815    1.996345    0.612616
O       2.149643    2.521695   -0.699528
H      -2.023396    2.390526   -0.584714
H      -2.570662    2.395597    1.856635
H      -1.320903    1.168324    2.090689
H      -1.000022    4.202342    2.246342
H       0.275267    3.045457    2.656101
H       0.005344    4.250322   -0.071504
H       2.745646    2.689603    1.343470
H       2.696618    0.972006    0.660813
