21

C      -0.643704    1.050604    0.088458
C       0.213852   -0.204592   -0.176366
C       1.181624    0.034509   -1.344701
C       0.944580   -0.638612    1.065601
C       2.215298   -0.341475    1.529432
C       2.317006   -1.004912    2.766386
N       1.205285   -1.669651    3.062862
N       0.378153   -1.434107    2.018149
C      -0.932474   -2.048969    2.014044
H      -0.006513    1.895320    0.369410
H      -1.207746    1.329752   -0.807755
H      -1.357901    0.890053    0.901612
H      -0.466223   -1.015655   -0.469561
H       1.863996    0.862559   -1.126173
H       1.784802   -0.853849   -1.550929
H       0.627556    0.294139   -2.252084
H       2.959517    0.264580    1.038888
H       3.152224   -1.029907    3.451173
H      -1.727603   -1.297425    1.984850
H      -1.053119   -2.722680    1.159294
H      -1.015626   -2.623136    2.935847
