23

C      -0.147929    1.536962    0.032541
C      -0.011166    0.013225   -0.028558
C       0.809045   -0.503120   -1.237219
C       2.281641   -0.045946   -1.198561
C       0.724340   -1.962239   -1.322680
C       0.656706   -3.164933   -1.360444
C       0.584020   -4.618544   -1.444900
C       1.142061   -5.159451   -2.765688
O       1.012495   -6.570868   -2.724323
H       0.816074    2.033078    0.179797
H      -0.589217    1.932908   -0.889400
H      -0.797038    1.832310    0.862661
H       0.451682   -0.361533    0.892615
H      -1.007289   -0.439909   -0.076291
H       0.351971   -0.083366   -2.145892
H       2.831331   -0.443798   -2.055590
H       2.356987    1.044723   -1.223519
H       2.771145   -0.405784   -0.287865
H       1.140864   -5.081490   -0.620828
H      -0.453866   -4.959528   -1.344811
H       0.580361   -4.722888   -3.605016
H       2.192318   -4.849272   -2.872412
H       1.356114   -6.929692   -3.547324
