11

O       0.097549    1.303889    0.126608
C       0.071986   -0.030346    0.058725
N       0.076291   -0.581179   -1.156611
C       0.050123   -1.916860   -1.180820
C       0.020341   -2.694474   -0.033373
C       0.019771   -1.970423    1.155862
F      -0.007514   -2.621752    2.306016
N       0.044757   -0.661276    1.233026
H       0.115275    1.621026   -0.787158
H       0.053275   -2.379990   -2.164027
H      -0.000869   -3.774637   -0.048024
