18

C      -0.019675    1.509427   -0.214985
C       1.513037    1.412298    0.151276
C       1.059864    0.113083    0.842285
C       0.966130   -1.440449    1.165884
C       1.343920   -1.670531    2.606364
C       0.834896   -0.616270    3.254811
C       0.162952    0.208099    2.186072
C      -0.496099   -0.774195    1.179294
N      -0.102730   -0.000069   -0.067138
H      -0.587942    2.109931    0.502902
H      -0.268363    1.827879   -1.228914
H       2.124007    1.241406   -0.737849
H       1.953936    2.191265    0.775784
H       1.207555   -2.150290    0.377359
H       1.927581   -2.495885    2.989089
H       0.904577   -0.363920    4.304357
H      -0.336308    1.136844    2.455050
H      -1.449321   -1.304041    1.290864
