13

C       0.015440    1.525750   -0.049826
N       1.383951    2.022041    0.111296
C       2.357849    1.240537    0.250709
O       2.382042   -0.145505    0.283991
C       1.163531   -0.714646    0.143346
N       0.999532   -2.010177    0.151034
O      -0.377510   -2.165844   -0.018558
C      -0.960343   -0.956275   -0.118176
C      -0.033209    0.028358   -0.023223
H      -0.594085    1.971165    0.746182
H      -0.375883    1.933225   -0.990240
H       3.372903    1.606472    0.370251
H      -2.031017   -0.966000   -0.252457
