18

C       0.024971    1.493454   -0.015891
C      -0.025437    0.038659    0.006524
C      -0.084393   -1.163282    0.016571
C      -0.114460   -2.626034    0.052520
C       0.812599   -3.179649    1.154025
C       0.576399   -4.677076    1.283211
O      -0.810588   -4.965917    1.516853
C      -1.694780   -4.148421    0.897570
N      -1.498428   -3.106129    0.208995
H       0.518561    1.891166    0.877805
H       0.574862    1.860454   -0.889616
H      -0.982797    1.921282   -0.055652
H       0.244418   -2.995511   -0.920158
H       1.862170   -2.978120    0.921142
H       0.579721   -2.682522    2.101136
H       0.887293   -5.203001    0.370935
H       1.117377   -5.108688    2.128423
H      -2.707136   -4.511145    1.068366
