15

C      -0.131822    1.487681    0.012032
C       0.032383   -0.015332    0.000616
O       1.110553   -0.570867   -0.005286
C      -1.206642   -0.830277   -0.003964
C      -1.386330   -2.179008   -0.031227
C      -2.803089   -2.326111   -0.024727
N      -3.524258   -3.499360   -0.115988
N      -3.413525   -1.154061    0.013390
O      -2.396650   -0.202221    0.015716
H       0.852386    1.956042    0.015811
H      -0.702696    1.814117   -0.863495
H      -0.703606    1.801108    0.891678
H      -0.623093   -2.937774   -0.062432
H      -3.107028   -4.290116    0.351867
H      -4.502221   -3.389150    0.114791
