19

C      -0.078198    1.550991    0.019412
C      -0.016547    0.051450   -0.018218
C      -0.041937   -0.661930   -1.143860
C       0.061575   -2.167505   -1.134065
N       1.321988   -2.657699   -0.576412
C       1.888845   -2.420045    0.656842
O       2.847787   -3.073787    1.039140
N       1.391203   -1.388929    1.429948
C       0.120497   -0.679026    1.305225
H       0.826451    1.967654    0.480454
H      -0.177956    1.976569   -0.982470
H      -0.926007    1.898109    0.624289
H      -0.107451   -0.164313   -2.107552
H      -0.802355   -2.601843   -0.604844
H       0.011345   -2.545991   -2.157643
H       1.723897   -3.479179   -0.998779
H       1.828853   -1.389597    2.337404
H       0.084438    0.037037    2.130044
H      -0.736962   -1.356139    1.447495
