15

O       0.008604    1.463391   -0.128808
C       0.008627    0.125762    0.320032
C      -1.324626   -0.547029    0.060862
O      -1.577533   -0.639075   -1.392929
C      -1.723409   -2.012059   -1.361035
O      -1.984552   -2.746256   -2.254122
C      -1.418835   -2.070304    0.127538
C      -0.697717   -3.087972    0.897891
O      -2.097778   -2.845181    1.076984
H      -0.182107    1.446117   -1.073950
H       0.810227   -0.467081   -0.148046
H       0.197056    0.153528    1.398973
H      -2.150652   -0.018315    0.542718
H      -0.445043   -4.032084    0.420313
H      -0.060524   -2.778096    1.724008
