18

C       1.291149   -0.772326    0.056556
C       0.014449    0.045652    0.014502
O       0.035902    1.265105    0.119682
N      -1.146952   -0.670735   -0.142158
C      -1.258165   -2.133638   -0.220801
C      -2.798641   -2.342850   -0.172702
N      -3.407371   -1.019389   -0.249517
C      -2.471395   -0.146693   -0.222317
N      -2.631311    1.195745   -0.310557
H       2.132167   -0.082330    0.113611
H       1.306355   -1.431504    0.930789
H       1.392291   -1.403971   -0.831371
H      -0.818124   -2.504672   -1.153090
H      -0.739597   -2.613127    0.613456
H      -3.138673   -2.974482   -1.000871
H      -3.101262   -2.848396    0.753512
H      -3.567122    1.533930   -0.163919
H      -1.833540    1.763731   -0.058509
