21

O       0.013575   -0.017559   -0.417429
C       0.011916    1.143292   -0.069376
C      -1.304294    1.891164    0.141514
C      -1.400814    3.265900   -0.547836
C      -0.508332    4.380574    0.028009
C       0.980158    4.043141    0.205754
C       1.558504    3.051512   -0.845322
C       1.318173    1.879330    0.168879
C       1.268518    2.962778    1.286924
H      -2.093916    1.226806   -0.218204
H      -1.457736    2.012583    1.223070
H      -1.190610    3.138409   -1.616388
H      -2.442191    3.601835   -0.491620
H      -0.598908    5.252479   -0.631686
H      -0.905000    4.696186    1.002741
H       1.539288    4.974888    0.328361
H       1.081953    2.989849   -1.826431
H       2.630739    3.200515   -0.993592
H       2.106981    1.128351    0.227396
H       2.256927    3.096093    1.733976
H       0.540700    2.837492    2.093323
