15

O      -0.028494    1.419364   -0.014261
C      -0.014119   -0.000361    0.025218
C       0.586975   -0.531113    1.356505
C      -0.617029   -0.763249    2.225849
C      -1.752232   -0.723178    1.515704
C      -1.491156   -0.449683    0.045806
C      -3.057766   -0.941674    2.032619
N      -4.134336   -1.118546    2.422551
H       0.882605    1.729979   -0.010376
H       0.517672   -0.403565   -0.846514
H       1.141806   -1.468054    1.207443
H       1.294248    0.186970    1.788364
H      -0.561369   -0.961779    3.289280
H      -2.129470    0.336656   -0.365365
H      -1.653211   -1.354496   -0.551289
