12

O       0.267549    1.387767    0.266806
C       0.164896    0.055248    0.059902
C       0.118438   -0.781388   -1.025069
N       0.003761   -2.129510   -0.647319
C      -0.014671   -2.058170    0.640764
O      -0.102992   -2.927028    1.668966
N      -0.064878   -2.172368    2.867281
C       0.040908   -0.926832    2.519886
N       0.077171   -0.783372    1.158865
H       0.319221    1.830186   -0.586632
H       0.160114   -0.502362   -2.066760
H       0.092052   -0.120946    3.233997
