12

N      -0.128627    1.252001   -0.277446
C      -0.054128   -0.004132   -0.072362
N       1.134316   -0.764834   -0.143853
N       1.463145   -1.921754    0.584205
N       0.663808   -2.865781    0.640279
C      -0.545096   -2.823839   -0.169607
O      -0.669178   -3.589033   -1.079320
N      -1.537296   -1.950644    0.279178
C      -1.309327   -0.700116    0.306579
H       0.768421    1.674828   -0.523104
H       1.967014   -0.191122   -0.194826
H      -2.098964   -0.021610    0.625204
