13

N       0.093665    1.385680    0.158714
C      -0.005277    0.007518    0.040564
C      -1.082441   -0.874275    0.013108
C      -2.484754   -0.506066   -0.006818
O      -3.432053   -1.259274   -0.025696
N      -0.613839   -2.183831   -0.016950
C       0.679529   -2.096977   -0.017071
N       1.110731   -0.781929    0.017300
H       0.729478    1.818400   -0.500576
H      -0.805353    1.846280    0.127285
H      -2.648402    0.602270   -0.010070
H       1.379896   -2.918489   -0.049912
H       2.060959   -0.458730    0.101271
