15

N       0.014690    1.164904    0.537469
C       0.044323    0.003038    0.043051
O       1.204263   -0.597935   -0.360327
C       1.113875   -1.702348   -1.282038
C       0.151771   -2.743435   -0.728782
O       0.437296   -3.893161   -0.511679
N      -1.113269   -2.195460   -0.489982
C      -1.561926   -1.892815    0.858366
C      -1.213197   -0.794130   -0.111037
H       0.951337    1.573378    0.549649
H       0.789894   -1.346719   -2.268318
H       2.115422   -2.123323   -1.353900
H      -2.607026   -2.095128    1.069979
H      -0.871153   -2.096963    1.671362
H      -2.033507   -0.243460   -0.561256
