17

C       0.180257    1.528349   -0.190586
C      -0.069674    0.069150    0.091401
O       0.585716   -0.808384   -0.897794
C       1.335518   -1.427061    0.060042
N       2.228856   -2.302238   -0.000453
C       0.756406   -0.634789    1.234902
N       1.785148    0.180301    1.873910
C      -0.061328   -1.407876    2.161191
C      -0.743968   -2.004845    2.950830
H       1.247253    1.752570   -0.152583
H      -0.215995    1.789207   -1.176489
H      -0.329365    2.145081    0.557001
H      -1.133798   -0.175101    0.128331
H       2.409577   -2.597306   -0.961167
H       1.468449    0.483892    2.789455
H       2.606021   -0.401052    2.019133
H      -1.334552   -2.550944    3.644612
