16

O      -0.846238    1.119203   -0.066439
C       0.312039    0.786093   -0.083868
C       1.443211    1.765685   -0.035490
C       1.979803    2.388211    1.299183
C       3.225789    2.444702    0.371309
O       2.765542    1.208741   -0.241965
C       2.792324    3.524148   -0.657360
N       2.493639    2.952750   -1.988564
C       1.436356    3.017481   -0.961122
H       0.628190   -0.278996   -0.120071
H       1.529599    3.319213    1.652306
H       2.078609    1.649132    2.095478
H       4.253393    2.411298    0.729616
H       3.047466    4.569047   -0.531122
H       2.344132    3.725575   -2.636098
H       0.542807    3.614953   -1.083376
