11

C      -0.022738    1.419782   -0.076481
N      -0.050734   -0.000264   -0.363754
C      -1.076562   -0.639096   -0.042413
O      -1.141604   -1.984994   -0.297617
C      -2.272623   -2.651923    0.064851
O      -2.404970   -3.818959   -0.122405
H       0.833914    1.638005    0.569634
H       0.131675    1.971351   -1.009684
H      -0.935411    1.798842    0.409358
H      -1.972120   -0.227350    0.442749
H      -3.026416   -1.997103    0.538337
