23

C      -0.038136    1.697569    0.172891
C       0.085258    0.170530    0.088432
C      -1.280342   -0.513019    0.016208
C      -2.075468   -0.485934   -1.372907
C      -1.825951   -2.006627   -1.441625
C      -2.264810   -3.505066   -1.397712
C      -0.900616   -3.387827   -0.574083
C      -0.377931   -2.526392   -1.735459
C      -1.525775   -2.090715    0.055395
H       0.946637    2.172565    0.224629
H      -0.556798    2.102928   -0.702791
H      -0.603127    2.000855    1.061324
H       0.706330   -0.082791   -0.775893
H       0.619108   -0.202797    0.971598
H      -1.891854   -0.079929    0.814950
H      -3.122836   -0.204877   -1.232337
H      -1.652147    0.116905   -2.182868
H      -3.164979   -3.728758   -0.819002
H      -2.217503   -4.099491   -2.316620
H      -0.386599   -4.220043   -0.083092
H      -0.240047   -3.026007   -2.699123
H       0.459626   -1.866998   -1.518732
H      -2.386140   -2.297956    0.699551
