13

N      -0.011627    1.300653    0.277909
C      -0.023943   -0.050385    0.030312
N      -1.104025   -0.816574    0.002847
C      -0.571237   -2.045384   -0.201588
O      -1.387601   -3.121801   -0.314471
C      -0.924996   -4.329563    0.144433
O      -1.535131   -5.333116   -0.040613
N       0.737522   -2.121819   -0.318682
N       1.084304   -0.801028   -0.148367
H       0.685966    1.837010   -0.217227
H      -0.933782    1.707218    0.208448
H       0.028548   -4.231496    0.684387
H       2.054429   -0.536437   -0.144451
