17

C      -0.037398    1.529185   -0.029876
C       0.033618    0.020752    0.065634
O       0.131154   -0.561180    1.117864
C       0.028365   -0.757916   -1.268687
C       1.496242   -0.959098   -1.798628
O       1.466126   -2.354175   -1.493662
C       0.083569   -2.300143   -1.090124
C      -0.926806   -0.239007   -2.224795
C      -1.724133    0.179913   -3.022057
H       0.663699    1.909341   -0.780270
H      -1.038007    1.826201   -0.359712
H       0.175532    1.967458    0.945328
H       1.602242   -0.757008   -2.870688
H       2.276222   -0.424615   -1.242175
H      -0.059097   -2.627763   -0.057602
H      -0.569417   -2.852368   -1.773438
H      -2.428215    0.547177   -3.727536
