20

C      -0.832655    0.778183   -0.068497
C       0.280579   -0.255077    0.102167
N       0.814508   -0.746920   -1.168220
C       1.512821    0.279381   -1.932734
C       1.638766   -1.928055   -1.001694
C       1.812584   -2.728945   -2.292204
O       2.858978   -3.265498   -2.582499
C       0.635021   -2.859563   -3.135490
C      -0.318043   -3.014680   -3.854202
H      -0.465628    1.721063   -0.483374
H      -1.613553    0.392662   -0.730513
H      -1.280881    1.004046    0.903868
H       1.080676    0.166037    0.742811
H      -0.124331   -1.120347    0.638714
H       2.387412    0.692079   -1.394764
H       1.867323   -0.138351   -2.879456
H       0.837500    1.103148   -2.172535
H       2.651737   -1.728716   -0.608842
H       1.142955   -2.604473   -0.292237
H      -1.160168   -3.148919   -4.488706
