17

N       0.082920   -1.125875   -0.002232
C       0.045813    0.029914   -0.005245
C      -0.001015    1.475598   -0.002573
C      -0.986073    2.168831    0.989257
N      -1.535471    3.051639   -0.088454
C      -0.378790    3.610913   -0.854384
C       0.999891    3.671383   -0.206488
C       1.368191    2.186741    0.045820
C      -0.807521    2.223826   -1.109056
H      -1.780458    1.505550    1.334013
H      -0.539342    2.684395    1.845946
H      -0.693787    4.406715   -1.520242
H       1.715040    4.156461   -0.875970
H       0.981989    4.257481    0.718097
H       1.870686    2.021746    1.002959
H       2.014981    1.800444   -0.747562
H      -1.272160    1.803676   -1.992305
