20

C      -0.505708    1.623542    0.092251
C      -0.157024    0.141274    0.071185
C      -1.438711   -0.692883    0.077077
C       0.876882   -0.419400   -0.955741
C       1.636432   -0.968792    0.252867
C       2.092355    0.089764    1.193771
C       2.641598    1.406709    0.763079
O       3.426493    2.026410    1.440833
N       0.670895   -0.377526    1.242073
H       0.363001    2.279661    0.024514
H      -1.167724    1.864736   -0.746521
H      -1.036848    1.866202    1.018504
H      -2.022666   -0.501323   -0.829242
H      -1.209856   -1.761274    0.123557
H      -2.052760   -0.443013    0.947588
H       0.459756   -1.198948   -1.595751
H       1.408759    0.294567   -1.588787
H       2.003118   -1.986130    0.351039
H       2.606266   -0.261491    2.084989
H       2.349123    1.777017   -0.238940
