17

O      -0.334166    0.030030    0.054346
C      -0.064915    1.186590    0.245562
C       1.238759    1.868718   -0.075782
O       2.288237    1.059807   -0.631977
C       2.556438    2.046938   -1.669924
C       1.959731    1.774676   -3.064107
C       0.657900    1.047284   -2.940079
C       0.678389    2.521393   -2.630400
C       1.321165    2.869542   -1.268054
H      -0.796076    1.886977    0.717228
H       1.569626    2.357369    0.857685
H       3.578195    2.428677   -1.628092
H       2.513059    1.836966   -3.992946
H       0.184566    0.809449   -3.887495
H       0.527027    0.298424   -2.169730
H       0.082092    3.223296   -3.199972
H       1.379651    3.931229   -1.037142
