20

C       0.028190    1.421545   -0.181982
C       1.520477    1.479689    0.192106
C       1.294818    0.038354    0.715812
O      -0.047962    0.021885    0.163191
C       2.144804   -1.061019    0.177042
C       2.272761   -1.477260   -1.298548
C       2.438268   -2.962521   -0.831478
C       2.307781   -2.492160    0.623513
N       3.307972   -1.483540    0.953316
H      -0.628308    2.032362    0.451571
H      -0.228767    1.599260   -1.232391
H       2.194305    1.533593   -0.665558
H       1.818021    2.222241    0.933041
H       1.277350   -0.030108    1.811288
H       1.345822   -1.321753   -1.853334
H       3.104126   -1.028401   -1.853173
H       1.608180   -3.592786   -1.157884
H       3.379121   -3.464557   -1.081698
H       1.837975   -3.026125    1.441905
H       4.151104   -1.562652    0.386719
