18

C      -0.099978    1.435247    0.326038
C      -0.024289    0.117638   -0.414596
O       0.964628   -0.233408   -1.016717
C      -1.259661   -0.780429   -0.348014
C      -1.554318   -1.507439   -1.672253
O      -2.206190   -2.734197   -1.309869
C      -1.947981   -3.049948   -0.006066
N      -2.380032   -4.072985    0.591465
C      -1.063626   -1.982332    0.602991
H       0.861150    1.948254    0.283274
H      -0.876448    2.068064   -0.120468
H      -0.392307    1.270836    1.369615
H      -2.133233   -0.202903   -0.030234
H      -2.226137   -0.954759   -2.332560
H      -0.619781   -1.725268   -2.198967
H      -2.934834   -4.651432   -0.041898
H      -0.022090   -2.321826    0.568636
H      -1.329303   -1.793132    1.642720
