21

O      -0.420382    1.584790   -0.178786
C      -0.076892    0.220562    0.019675
C      -1.372006   -0.576468    0.009158
C      -1.170484   -2.066980    0.219095
O      -0.080046   -2.534789    0.472724
C      -2.394099   -2.941308    0.043951
C      -2.630833   -3.478189   -1.414517
C      -2.987626   -4.858890   -0.803263
C      -2.318470   -4.412233    0.523317
H       0.390711    2.100826   -0.161231
H       0.590869   -0.150011   -0.771659
H       0.442315    0.064523    0.975387
H      -2.045949   -0.202760    0.792366
H      -1.910216   -0.414556   -0.934302
H      -3.287423   -2.421999    0.404295
H      -3.387964   -2.969771   -2.015234
H      -1.694138   -3.511106   -1.978133
H      -4.068624   -4.985437   -0.696166
H      -2.583540   -5.743642   -1.300209
H      -1.273811   -4.723522    0.591835
H      -2.827001   -4.657758    1.458047
