21

C       0.058566    1.555655    0.009614
C       0.009126    0.037642    0.067362
O       0.564362   -0.466537   -1.131599
C      -0.128350   -1.494080   -1.811549
C      -0.284093   -2.815662   -1.020378
C       0.987129   -3.227235   -0.332140
C       1.395748   -2.709734    0.826340
C       0.610197   -1.698039    1.631729
O       0.751462   -0.345359    1.196463
H       1.096067    1.875344   -0.116020
H      -0.526296    1.916267   -0.840099
H      -0.337216    1.987201    0.931897
H      -1.031913   -0.318942    0.167203
H      -1.126125   -1.151557   -2.128629
H       0.460768   -1.671816   -2.717052
H      -1.088689   -2.695736   -0.286592
H      -0.621214   -3.584597   -1.724345
H       1.629814   -3.931540   -0.855564
H       2.359300   -3.005918    1.232545
H      -0.457981   -1.964581    1.650157
H       0.960769   -1.696239    2.667376
