20

C      -0.010113    1.530168    0.022992
C      -0.048420   -0.002869   -0.033271
C      -1.440091   -0.554564    0.065755
N      -2.553440   -0.234310   -0.953307
C      -3.239403   -1.183011    0.027651
C      -1.938121   -2.040926   -0.018475
C      -1.632242   -2.840146   -1.275533
C      -2.553112   -0.336901    1.118477
O      -2.792923    0.304583    2.096969
H       1.020230    1.895157   -0.007912
H      -0.542124    1.968797   -0.827569
H      -0.475803    1.897894    0.942083
H       0.417223   -0.362331   -0.959010
H       0.537018   -0.421293    0.795039
H      -2.897964    0.722711   -0.835195
H      -4.273359   -1.495212   -0.106156
H      -1.753299   -2.622689    0.889317
H      -1.831030   -2.256189   -2.175082
H      -0.581643   -3.149976   -1.285129
H      -2.241570   -3.749351   -1.307149
