23

C      -0.099234    1.308400    0.082035
O      -0.106985   -0.083066   -0.156898
C       0.680918   -0.558631   -1.250277
C       0.249545    0.039770   -2.580077
C       2.201009   -0.595212   -0.901828
C       2.052614   -2.062033   -0.394309
C       2.006153   -2.222344    1.121692
C       0.659494   -2.115502   -1.107795
O      -0.440994   -2.682865   -0.458340
H       0.920376    1.705243    0.182300
H      -0.614973    1.867356   -0.709618
H      -0.629517    1.469420    1.023850
H       0.473924    1.109483   -2.646487
H       0.777398   -0.455954   -3.400036
H      -0.826140   -0.099392   -2.730475
H       2.831882   -0.502444   -1.789894
H       2.536433    0.136549   -0.162114
H       2.784090   -2.759365   -0.813756
H       1.319787   -1.502678    1.577051
H       1.668949   -3.226521    1.395918
H       2.998433   -2.063295    1.557550
H       0.744577   -2.593397   -2.089335
H      -0.763195   -2.004548    0.149932
