20

C      -0.147556    1.507898    0.034720
C       0.074392   -0.003730    0.058570
C       1.004003   -0.563537   -1.083030
C       2.035608   -1.321784   -0.228851
C       1.126589   -2.019659    0.828658
C       0.855689   -0.550083    1.274888
C       2.340708   -0.260971    0.876239
O       3.337612   -0.563079    1.822923
H       0.793132    2.063817    0.103874
H      -0.641136    1.813430   -0.894257
H      -0.783417    1.826544    0.868101
H      -0.905568   -0.492701    0.013039
H       0.470394   -1.216841   -1.779040
H       1.464971    0.241033   -1.665919
H       2.839525   -1.847818   -0.745368
H       0.276405   -2.606506    0.467858
H       1.677068   -2.617477    1.560255
H       0.477781   -0.302264    2.268387
H       2.579287    0.747420    0.528580
H       3.162017   -1.429862    2.201894
