20

C       0.357268    1.586259    0.021793
C       0.092606    0.089121    0.033416
C       0.875957   -0.828138   -0.965191
C       1.308905   -1.752943    0.209540
C       2.629563   -1.387175    0.917968
C       3.865430   -0.947452    0.162593
O       1.975317   -0.303872    1.636703
C       0.668880   -0.744705    1.203631
H       1.416805    1.787416    0.201421
H       0.077705    2.026262   -0.941570
H      -0.216606    2.097944    0.802374
H      -0.983006   -0.107324   -0.047515
H       0.247195   -1.320810   -1.710069
H       1.696954   -0.335922   -1.492955
H       1.047172   -2.808045    0.141122
H       2.906421   -2.177772    1.632866
H       3.642959   -0.160960   -0.562653
H       4.610100   -0.557968    0.864174
H       4.309999   -1.797408   -0.366588
H       0.020673   -1.000112    2.047805
