17

C      -0.244462    1.533535    0.021912
C       0.083174    0.044470   -0.035080
C       0.896184   -0.457699   -1.240173
C       1.507905   -1.790978   -0.756878
C       1.879155   -1.519435    0.710016
C       0.889045   -0.446599    1.178671
O       0.768001   -0.040782    2.306465
H       0.664795    2.136431   -0.076611
H      -0.929370    1.822633   -0.780718
H      -0.705069    1.780648    0.982026
H      -0.856899   -0.529955    0.006622
H       0.295301   -0.569568   -2.146428
H       1.695311    0.260465   -1.467059
H       0.754184   -2.585131   -0.812651
H       2.358832   -2.110496   -1.363152
H       1.855491   -2.391156    1.368617
H       2.885155   -1.087531    0.793639
