20

C      -0.211307    1.529079   -0.147427
C      -0.054910    0.006117   -0.136222
C       0.888757   -0.539797   -1.237883
C       2.345265   -0.095129   -1.059799
C       0.802734   -2.033644   -1.294938
N       1.703204   -2.919858   -1.003949
C       1.078779   -4.143991   -1.215739
C      -0.188560   -3.927059   -1.630706
O      -0.384283   -2.575037   -1.687988
H       0.730887    2.041626    0.067496
H      -0.569582    1.882706   -1.120949
H      -0.936659    1.846946    0.607756
H       0.319928   -0.325530    0.840407
H      -1.038717   -0.457863   -0.264800
H       0.515659   -0.161805   -2.200657
H       2.741526   -0.443742   -0.101988
H       2.979415   -0.510222   -1.846673
H       2.423162    0.994144   -1.094580
H       1.590435   -5.079468   -1.054776
H      -1.021242   -4.548195   -1.911738
