21

C       0.182406    1.040580   -0.559055
N       0.209033   -0.376458   -0.215778
C      -1.081373   -0.894889    0.362396
C      -0.707772   -2.381454    0.465801
C       0.383080   -2.123381    1.536659
C       0.737179   -0.621237    1.144239
C      -0.618986   -0.417278    1.853786
N      -0.345406   -1.562136    2.708374
C      -1.413227   -2.287991    3.372963
H       1.201060    1.376528   -0.780624
H      -0.418039    1.178105   -1.464223
H      -0.227103    1.702056    0.224639
H      -2.007463   -0.590315   -0.123084
H      -1.497094   -3.049774    0.813679
H      -0.308759   -2.741882   -0.482976
H       1.135767   -2.886801    1.733117
H       1.690400   -0.194996    1.451984
H      -1.016899    0.497245    2.291791
H      -2.254795   -2.584904    2.727006
H      -1.003709   -3.193002    3.834139
H      -1.816301   -1.660269    4.175083
