19

C       0.164850    1.581698    0.164730
O      -0.192182    0.217721    0.287231
C       0.546868   -0.472856    1.240464
C       0.131631   -1.949651    1.419474
C      -0.871693   -2.515710    0.433863
O       1.489287   -2.395052    1.152445
C       1.948460   -1.058236    0.840190
C       2.363196   -0.891310   -0.542549
C       2.719523   -0.747790   -1.681960
H       1.199885    1.700724   -0.180373
H      -0.508041    2.022862   -0.573548
H       0.044917    2.111837    1.122060
H       0.599317    0.091567    2.182116
H      -0.151994   -2.204771    2.448138
H      -0.619784   -2.229324   -0.588890
H      -0.875145   -3.607404    0.507072
H      -1.877694   -2.148495    0.659821
H       2.764604   -0.763466    1.512258
H       3.030682   -0.628749   -2.690475
