19

O      -1.419419    1.896519   -0.995704
C      -1.184243    0.539399   -0.777596
C      -1.986609    0.011242    0.397515
O      -2.695022    0.771983    1.025464
C      -1.906457   -1.473437    0.701552
C      -3.165443   -2.190572    0.223176
O      -3.353528   -2.125964   -1.169239
C      -3.562178   -3.487108    0.862780
C      -4.386468   -2.234058    1.099110
H      -2.023885    2.161197   -0.283094
H      -1.450113   -0.071631   -1.657134
H      -0.117288    0.335156   -0.578773
H      -1.033885   -1.917163    0.209553
H      -1.801104   -1.597753    1.783117
H      -3.861642   -1.331785   -1.368157
H      -3.976898   -4.237554    0.200339
H      -2.958369   -3.874864    1.675752
H      -4.345207   -1.751380    2.068485
H      -5.349534   -2.176069    0.603821
