25

C       0.456631    1.017958    0.721876
C       0.239791   -0.500338    0.727863
C      -1.202051   -0.883284    0.411763
C      -1.809362   -0.746448   -1.024472
C      -0.865550   -1.619748   -1.876540
C      -0.746313   -2.858433   -0.922338
C      -1.651807   -2.367378    0.226028
C      -2.870498   -1.807077   -0.580034
C      -4.099227   -1.333266    0.187381
H       1.489396    1.275537    0.976825
H       0.240466    1.444834   -0.263540
H      -0.199118    1.514606    1.445918
H       0.936728   -0.966193    0.023360
H       0.499477   -0.900926    1.717276
H      -1.851360   -0.386203    1.137188
H      -2.106796    0.219950   -1.436232
H      -1.310028   -1.876232   -2.842609
H       0.097839   -1.141718   -2.074599
H      -1.128892   -3.776426   -1.377943
H       0.281250   -3.052242   -0.603186
H      -1.786244   -3.035506    1.079413
H      -3.202700   -2.465816   -1.392383
H      -3.864550   -0.664722    1.019903
H      -4.784046   -0.797228   -0.479475
H      -4.647266   -2.188536    0.598600
