25

C       0.276354    1.510207    0.089765
C       0.066368   -0.001883   -0.037036
C       0.733240   -0.642398   -1.272135
C       2.264888   -0.628535   -1.160116
C       0.159024   -2.055403   -1.511793
O      -1.262296   -2.013222   -1.652933
C       0.736964   -2.806857   -2.720009
O       2.006798   -3.338144   -2.411088
C       2.549199   -4.101810   -3.461788
H       1.330935    1.775769    0.211942
H      -0.096566    2.037161   -0.796408
H      -0.261259    1.905053    0.957686
H       0.447409   -0.502373    0.863969
H      -1.005918   -0.215243   -0.074639
H       0.452446   -0.042783   -2.156277
H       2.631435    0.390988   -1.010927
H       2.595806   -1.232629   -0.307912
H       2.746176   -1.036797   -2.049540
H       0.339819   -2.676920   -0.626103
H      -1.466473   -1.390433   -2.359890
H       0.032777   -3.615147   -2.971680
H       0.798271   -2.136760   -3.598254
H       1.901055   -4.953893   -3.720863
H       2.700712   -3.499247   -4.371643
H       3.516687   -4.482260   -3.125321
