15

C      -0.014029    1.484317    0.002896
N      -0.007063    0.039864    0.040767
C      -0.035738   -0.831129   -1.053132
N      -0.020791   -2.103769   -0.737459
C       0.020178   -2.094385    0.638005
C       0.028970   -0.802192    1.116087
N       0.069237   -0.877924    2.481151
C       0.082951   -2.249322    2.747681
N       0.054311   -3.000366    1.673424
H       0.889218    1.898638    0.464390
H      -0.046208    1.807128   -1.039488
H      -0.891690    1.891455    0.517144
H      -0.067179   -0.427548   -2.055083
H       0.087349   -0.140172    3.162932
H       0.114605   -2.605401    3.766516
