17

O      -0.029798    0.014968    0.148343
C      -0.033938    1.202775    0.017914
C      -1.115040    2.317206    0.047538
C      -0.015466    3.160966    0.766247
C       1.045341    2.303519   -0.008483
C       1.115613    2.886493   -1.420128
C       0.664182    2.068755   -2.616860
C      -0.241731    3.122869   -2.025066
O      -1.383408    2.779970   -1.273572
H      -2.078802    2.137473    0.522884
H      -0.018167    4.232611    0.561205
H      -0.015683    2.973782    1.842619
H       2.020884    2.083448    0.425955
H       1.884401    3.639208   -1.566688
H       1.110240    2.285078   -3.581528
H       0.416848    1.024467   -2.460328
H      -0.425714    4.021532   -2.603981
