12

C      -0.078360   -3.805337   -0.012534
C      -0.042363   -2.598771   -0.004874
C      -0.002510   -1.240646    0.003689
C       0.040221   -0.031386    0.014260
C       0.049611    1.398917    0.000843
O       0.524701    2.083772    1.169712
C       1.313441    2.189737   -0.007252
C       2.604920    1.538713   -0.000567
N       3.650808    1.048579   -0.023575
H      -0.105457   -4.867182   -0.017621
H      -0.811949    1.874644   -0.467023
H       1.304024    3.165730   -0.489875
