20

C      -0.714128    1.269233    0.034576
C      -0.011335   -0.104681    0.032974
C       0.632858   -0.351565   -1.332282
O       1.112553   -1.690661   -1.497975
C       2.396777   -2.038863   -1.224385
N       3.338022   -1.502423   -0.581684
C       3.245379   -0.256649    0.182735
C       2.225708   -0.279190    1.309178
C       0.896601   -0.229296    1.230883
H       0.009079    2.078855   -0.109564
H      -1.464804    1.332689   -0.760149
H      -1.219338    1.443938    0.988715
H      -0.791762   -0.871590    0.144055
H      -0.135550   -0.242034   -2.103772
H       1.419900    0.369679   -1.558540
H       2.572332   -3.010537   -1.688399
H       4.232174   -0.103145    0.629164
H       3.089210    0.608177   -0.471629
H       2.656184   -0.371438    2.303585
H       0.348866   -0.265209    2.172318
