11

N      -0.051963    1.354243    0.010248
C       1.283700    1.746758   -0.000532
N       2.155214    0.769307   -0.014530
C       1.353083   -0.353781   -0.013018
N       1.465497   -1.684407   -0.021629
N       0.181792   -2.055089   -0.011172
N      -0.774428   -1.099893    0.003578
C      -0.010022   -0.017479    0.002194
H      -0.852926    1.961268    0.021677
H       1.539451    2.797192    0.002879
H      -0.074304   -3.028592   -0.014133
