18

C      -0.013410    1.470657    0.104177
C       1.360511    0.833286    0.011832
C       1.953609    0.522608    1.355181
C       1.272890   -0.473729    1.925211
C       0.649947   -0.896674    3.237562
C      -0.710343   -0.871687    2.445190
C       0.107021   -0.957479    1.097945
C       0.080690   -0.019487   -0.094610
H      -0.323652    1.867567    1.065487
H      -0.358037    2.045633   -0.749527
H       1.980551    1.053080   -0.851201
H       2.694407    1.158130    1.827779
H       0.911787   -1.917034    3.537644
H       0.760354   -0.233141    4.098108
H      -1.411396   -1.685115    2.645584
H      -1.219525    0.088258    2.554652
H       0.185214   -2.005211    0.783555
H      -0.223831   -0.406274   -1.059886
