21

C       0.552848    1.795555    2.785622
C       0.678280    0.497942    1.985002
C       0.397253   -0.777292    2.767362
C       0.596938   -0.884429    4.223339
O      -0.714026   -0.736425    3.664597
C       0.554109   -2.031594    1.943812
O       0.209311   -3.276710    2.538488
C      -0.541494   -2.850384    1.389423
C      -2.012408   -2.579965    1.571894
H       1.354682    1.897458    3.523274
H       0.609088    2.660653    2.119208
H      -0.403700    1.829202    3.313428
H      -0.020666    0.522704    1.138160
H       1.680595    0.419258    1.544723
H       0.801123   -1.864660    4.648138
H       0.953903   -0.031438    4.795531
H       1.503307   -2.045659    1.400093
H      -0.293927   -3.421906    0.491339
H      -2.198394   -2.037744    2.497563
H      -2.394826   -1.995289    0.727637
H      -2.563157   -3.526528    1.594137
