18

C      -0.461290    1.440052   -0.022488
C       0.034491    0.012098    0.050583
O       1.139012   -0.273957   -0.924514
C       2.039691   -0.396199    0.195560
C       2.749315    0.724686    0.936386
N       2.241797   -0.144288    2.090072
C       2.564517   -1.438797    1.279598
C       1.169552   -2.018585    1.481868
C       0.944667   -0.528895    1.199603
H       0.330212    2.166794    0.165962
H      -0.873735    1.635575   -1.017113
H      -1.256024    1.591519    0.715371
H      -0.788429   -0.688272   -0.130738
H       3.841363    0.772287    0.888286
H       2.317540    1.727703    0.928959
H       3.552667   -1.890891    1.408135
H       0.819844   -2.706902    0.709023
H       0.931024   -2.377904    2.485889
