19

C       0.017510    1.403129    0.344363
N      -0.050531   -0.027621    0.021109
C      -1.384317   -0.567707   -0.024938
C      -2.371895    0.145534   -0.800540
N      -3.148824    0.733490   -1.426851
C      -1.536528   -2.097886    0.084439
C      -0.343829   -3.021077   -0.014521
C      -1.804282   -1.249122    1.292271
O      -0.902562   -1.184596    2.339692
H       1.065850    1.711681    0.356994
H      -0.531552    2.038815   -0.364076
H      -0.400069    1.562699    1.342614
H       0.446569   -0.221926   -0.841400
H      -2.430839   -2.461176   -0.414149
H       0.517387   -2.639091    0.535147
H      -0.600096   -3.998854    0.405302
H      -0.045446   -3.173672   -1.056799
H      -2.828401   -1.125074    1.626672
H      -0.066619   -0.883446    1.947662
