16

N      -0.001468   -1.138447   -0.112130
C       0.035019    0.012284   -0.010528
C       0.064496    1.444420    0.156722
O       0.287113    2.217787   -1.033544
C       1.291951    2.261175   -0.015301
C       1.219355    3.459352    0.918485
C      -0.143807    3.378445    1.615269
C      -1.408997    3.443447    0.800401
C      -0.839975    2.098348    1.182967
H       2.249370    1.832916   -0.301810
H       2.024738    3.376632    1.656418
H       1.370558    4.396779    0.372585
H      -0.193398    3.701331    2.648791
H      -2.310428    3.755304    1.315972
H      -1.348563    3.732485   -0.241172
H      -1.363980    1.450996    1.873936
