22

C      -0.044785    1.429477   -0.006148
C       0.075599   -0.092843   -0.166683
C       0.888220   -0.472845   -1.415495
C       0.738375   -0.698686    1.062899
N       0.032440   -0.596861    2.443336
C      -0.829103   -1.785272    1.988622
C       0.590208   -2.169715    1.498665
O       1.020918   -3.252209    0.747149
C       1.045808   -1.660153    2.890716
H       0.945280    1.892043    0.084673
H      -0.541097    1.875380   -0.874205
H      -0.615483    1.685590    0.890702
H      -0.933186   -0.500739   -0.293281
H       1.904976   -0.065828   -1.359902
H       0.967495   -1.558765   -1.521310
H       0.420388   -0.070925   -2.320008
H       1.762116   -0.310113    1.137958
H      -1.250343   -2.349757    2.825380
H      -1.600627   -1.534809    1.261581
H       0.809972   -4.065029    1.220042
H       2.065048   -1.279628    2.994492
H       0.723967   -2.212080    3.778068
