19

O       0.032125    1.418826   -0.090104
C       0.076434    0.007515   -0.001819
C       0.798379   -0.459393    1.274653
O      -0.021279   -0.288107    2.433119
C      -1.344687   -0.737771    2.243815
C      -1.436016   -2.205773    1.774125
C      -1.431253   -2.079130    0.227270
C      -1.357050   -0.553776    0.013844
O      -1.970973   -0.007371    1.199370
H      -0.582423    1.702648    0.599438
H       0.626685   -0.345215   -0.881294
H       1.112011   -1.509700    1.176345
H       1.689997    0.150181    1.436008
H      -1.869853   -0.520052    3.174620
H      -0.613072   -2.803620    2.170782
H      -2.370250   -2.642917    2.132455
H      -0.591674   -2.601327   -0.239645
H      -2.350425   -2.477564   -0.207184
H      -1.917535   -0.188270   -0.848322
