17

C       0.010558    1.449987   -0.030814
N       0.009316    0.002494    0.030653
C      -1.094163   -0.634440    0.102416
C      -1.104177   -2.092576    0.164741
C      -2.253839   -2.773057    0.239928
C      -2.442470   -4.249000    0.310120
O      -3.461995   -2.101440    0.260091
C      -3.402933   -0.745801    0.200453
N      -2.373302   -0.013209    0.127900
H       0.600555    1.839415    0.808373
H       0.530574    1.765037   -0.944211
H      -0.983854    1.908129   -0.010513
H      -0.156266   -2.614499    0.148734
H      -1.476844   -4.756606    0.292734
H      -2.973942   -4.527762    1.226798
H      -3.044859   -4.602420   -0.534094
H      -4.406849   -0.329130    0.223424
