16

N       0.151323    1.489048    0.186300
C       0.060146    0.058972    0.022345
C      -1.325447   -0.633443    0.153491
C      -2.547627    0.278058    0.181725
C      -3.804601   -0.458662    0.190858
C      -4.830888   -1.082547    0.206722
O      -1.127050   -1.268168   -1.154312
C       0.050300   -0.596144   -1.377167
O       0.710384   -0.584197   -2.365694
H       1.113539    1.775442    0.321219
H      -0.190799    1.982699   -0.631291
H       0.802164   -0.424517    0.663084
H      -1.395013   -1.403382    0.924772
H      -2.466370    0.913574    1.072374
H      -2.516039    0.953134   -0.682322
H      -5.742149   -1.627549    0.213119
