19

C       0.803762    0.998536    0.510159
O       1.126115    0.319065   -0.681892
C       0.017205   -0.258954   -1.339561
C      -0.372795   -1.627480   -0.758002
N      -1.545815   -2.131137   -1.442397
C      -1.433645   -3.218681   -2.064945
O      -2.479490   -3.738882   -2.735220
C      -2.229747   -4.969496   -3.403400
H       0.070600    1.800783    0.332613
H       0.399353    0.331535    1.285844
H       1.728352    1.443584    0.886816
H      -0.856480    0.409452   -1.315310
H       0.309147   -0.385769   -2.387804
H       0.497499   -2.302265   -0.823259
H      -0.617071   -1.510905    0.305149
H      -0.513266   -3.823050   -2.112923
H      -1.459383   -4.858566   -4.176269
H      -1.925802   -5.754618   -2.700364
H      -3.169211   -5.258478   -3.875764
