21

C      -0.022568    1.495819   -0.007876
C      -0.003014   -0.024268    0.001794
C       0.740241   -0.671217   -1.197860
C       1.044093   -2.121979   -0.712454
C       0.451367   -2.152307    0.728134
C       0.717168   -0.707407    1.196219
C      -1.063763   -2.128185    0.535147
O      -1.839186   -3.036610    0.681349
C      -1.396382   -0.691843    0.092272
H       0.995040    1.902407   -0.008956
H      -0.534479    1.881501   -0.896717
H      -0.541832    1.893978    0.870915
H       0.135901   -0.648005   -2.109745
H       1.664774   -0.125434   -1.410572
H       0.607661   -2.892047   -1.353818
H       2.120689   -2.308976   -0.667026
H       0.797863   -2.978665    1.347235
H       1.783629   -0.463942    1.242084
H       0.260920   -0.469515    2.162923
H      -2.016998   -0.218731    0.863654
H      -1.970818   -0.684192   -0.839087
