15

N      -0.182882    1.534539   -0.128395
C       0.048398    0.092507   -0.000076
C      -1.305888   -0.715145   -0.000417
O      -1.436456   -1.462756   -1.251800
C      -0.203204   -1.392722   -1.811721
C       0.683049   -0.607750   -1.166209
O       1.853448   -0.574240   -1.816639
N       1.728206   -1.393386   -2.949486
C       0.497573   -1.876020   -2.939792
H       0.698269    2.032666   -0.038447
H      -0.531638    1.743834   -1.061013
H       0.573497   -0.065821    0.946545
H      -1.326863   -1.441496    0.816640
H      -2.159300   -0.040301    0.085257
H       0.190946   -2.537527   -3.736012
