18

C      -0.242151    1.518625   -0.005518
C       0.113799    0.050420   -0.119268
C       1.339777   -0.401485   -0.939643
C       1.775580   -1.221122    0.274914
N       0.741620   -0.543894    1.169929
H       1.128035    0.194346    1.761193
C       0.113793   -1.579457    1.981703
C       0.605457   -2.761464    1.611272
C       1.529408   -2.621079    0.410450
O       1.897330   -3.565564   -0.283598
H       0.636108    2.121940    0.249556
H      -0.614283    1.873669   -0.971323
H      -1.023003    1.696079    0.741811
H      -0.762010   -0.566930   -0.325097
H       1.103525   -0.984158   -1.834301
H       1.999432    0.427718   -1.225842
H      -0.549532   -1.286263    2.783579
H       0.332827   -3.718632    2.036809
