18

C      -0.080701    1.589674    0.020583
C       0.100084    0.068459    0.000166
C       0.895552   -0.466477   -1.165825
C       1.690146   -1.483004   -0.806953
C       1.551950   -1.794618    0.673040
C       0.848973   -0.528486    1.224683
O       1.792862    0.436979    1.660551
C       2.535165   -2.227866   -1.671876
N       3.234812   -2.856999   -2.348310
H       0.883751    2.098363    0.056463
H      -0.619229    1.918564   -0.873778
H      -0.658983    1.900362    0.895510
H      -0.898936   -0.393774   -0.036345
H       0.799494   -0.082981   -2.174957
H       0.940526   -2.694008    0.821476
H       2.513386   -1.972706    1.165801
H       0.150915   -0.775347    2.036197
H       2.264494    0.075816    2.417222
