19

O      -0.009943    0.109228   -0.695453
C      -0.016396    1.182245   -0.165808
C      -1.134111    2.119136    0.320288
C      -0.027983    3.109268    0.785809
C       1.089882    2.148410    0.288083
C      -0.052347    4.634635    0.489447
C      -1.111481    4.761664    1.624212
C      -0.016947    3.801534    2.177147
C       1.035479    4.789919    1.593127
H      -1.792496    2.468657   -0.482184
H      -1.759037    1.683881    1.107448
H       1.748583    1.730057    1.056647
H       1.715318    2.514836   -0.532989
H      -0.072832    5.109883   -0.493416
H      -1.186505    5.738921    2.108191
H      -2.098836    4.334978    1.434297
H       0.003633    3.310327    3.152130
H       2.027810    4.389290    1.374549
H       1.098741    5.768996    2.075104
