24

C      -5.672925   -4.251152    0.019436
C      -4.386308   -4.073357   -0.789404
O      -4.644280   -4.142283   -2.192818
C      -3.686405   -2.767416   -0.448732
N      -2.742207   -2.586508    0.659990
C      -2.393044   -3.687396    1.544027
C      -2.235705   -2.508490   -0.718767
C      -1.349952   -3.591789   -1.308630
C      -1.820512   -1.107369   -1.131383
H      -6.182645   -5.171848   -0.277172
H      -5.462026   -4.295100    1.092806
H      -6.355413   -3.409101   -0.150349
H      -3.730345   -4.925522   -0.597404
H      -5.208748   -3.395055   -2.421121
H      -4.364906   -1.914647   -0.559066
H      -2.285577   -4.675385    1.074227
H      -1.443569   -3.450491    2.035528
H      -3.156945   -3.768832    2.324753
H      -1.392427   -3.550497   -2.401504
H      -0.306989   -3.434449   -1.009909
H      -1.633018   -4.602038   -1.012099
H      -0.788000   -0.901625   -0.825622
H      -1.877468   -0.986235   -2.219266
H      -2.465121   -0.361182   -0.660619
