18

C      -0.115208    1.531315   -0.098430
C       0.066260    0.021825   -0.006458
N       0.933733   -0.460102   -1.133758
C       1.550930   -1.422983   -0.603779
O       2.733058   -2.072042   -0.818219
C       2.850809   -2.228174    0.660716
C       1.368350   -1.790897    0.825937
C       0.783835   -0.463339    1.330668
O       1.853469    0.374900    1.720703
H       0.855757    2.035508   -0.113982
H      -0.634922    1.793073   -1.022925
H      -0.706962    1.910964    0.743336
H      -0.920614   -0.461365   -0.056792
H       3.093013   -3.259445    0.919125
H       3.587486   -1.522895    1.045509
H       0.700639   -2.635305    1.007243
H       0.059449   -0.586256    2.148499
H       1.506287    1.258385    1.878245
