17

C      -0.008242    1.550685    0.048825
C      -0.012966    0.033705    0.009424
O       0.709102   -0.440650    1.136922
C       0.797760   -1.786817    1.247447
C       0.305551   -2.803851    0.450974
N       0.696099   -3.966662    1.040744
N       1.412428   -3.770997    2.172094
C       1.474398   -2.456224    2.298370
O       2.114925   -1.850117    3.319995
H       1.015801    1.932322    0.015262
H      -0.558245    1.952109   -0.807370
H      -0.479984    1.912057    0.966606
H      -1.041436   -0.358441    0.037956
H       0.457792   -0.338470   -0.913727
H      -0.272015   -2.788426   -0.457585
H       0.515418   -4.904667    0.734537
H       2.478023   -2.550456    3.876306
