15

N       0.161706    1.441677    0.008268
C       0.003683    0.042343   -0.016218
C      -1.098763   -0.768807   -0.030947
O      -2.374811   -0.292554   -0.023190
C      -0.663145   -2.135792   -0.054699
C       0.702009   -2.124654   -0.053778
N       1.126590   -0.809908   -0.030603
C       2.457836   -0.405130   -0.022958
O       3.387490   -1.173587   -0.035932
H      -0.260921    1.854883    0.833229
H      -0.261327    1.883470   -0.801527
H      -2.983627   -1.036488   -0.036961
H      -1.293181   -3.013209   -0.070372
H       1.431255   -2.916379   -0.067237
H       2.544416    0.690901   -0.003807
