22

O      -0.045900    1.420735    0.057102
C      -0.001819   -0.006259   -0.018948
C      -1.456154   -0.478810    0.099909
C      -2.365448   -0.032905   -1.059595
C      -2.175314   -0.881390   -2.301176
C      -2.092034   -0.292254   -3.667036
N      -0.913258   -0.891328   -3.045915
C       0.156643    0.003301   -2.605241
C       0.757623   -0.468860   -1.275791
H       0.854866    1.751269   -0.018658
H       0.541176   -0.400936    0.855650
H      -1.467808   -1.571992    0.188482
H      -1.844460   -0.078127    1.042574
H      -3.414004   -0.114159   -0.749977
H      -2.186644    1.025982   -1.264991
H      -2.605195   -1.879904   -2.211578
H      -2.495749   -0.814067   -4.531230
H      -2.130902    0.794754   -3.735979
H       0.926521   -0.013817   -3.385370
H      -0.165064    1.050956   -2.499373
H       1.786632   -0.091149   -1.196225
H       0.831772   -1.562697   -1.283105
