18

C      -0.059539    1.577495    0.180902
C      -0.061890    0.052826    0.024849
C       0.835442   -0.642800    1.054349
N      -1.425115   -0.480375    0.066256
C      -2.317415   -0.437875    1.087508
C      -3.462400   -1.072186    0.649684
C      -3.157965   -1.468113   -0.667081
N      -1.924552   -1.108889   -1.017711
H       0.955820    1.965779    0.056892
H      -0.703418    2.045063   -0.568478
H      -0.412643    1.876951    1.173256
H       0.281175   -0.204231   -0.980141
H       0.513865   -0.421361    2.077437
H       0.816899   -1.726825    0.915355
H       1.867826   -0.296784    0.946847
H      -2.077890    0.029804    2.029248
H      -4.376004   -1.223262    1.201402
H      -3.780094   -1.997423   -1.373929
