19

C      -0.043433   -1.205765    0.072021
C      -0.016417   -0.005443    0.014437
C       0.052570    1.450737   -0.057560
C       1.477902    1.969702   -0.079577
C       2.586165    1.691856   -1.114826
C       3.241603    2.638517   -0.091877
C       1.926197    3.466866    0.109911
C       1.992582    3.333492    1.644265
C       2.498665    1.975881    1.118415
H      -0.081120   -2.265505    0.123023
H      -0.473689    1.798164   -0.957017
H      -0.482598    1.887628    0.796296
H       2.967909    0.667173   -1.158461
H       2.426583    2.087878   -2.123870
H       4.254830    3.041647   -0.073089
H       1.601126    4.312095   -0.500311
H       2.725375    3.963408    2.158679
H       1.042816    3.336992    2.189296
H       2.831366    1.096535    1.671863
