14

C       0.029084    1.463902   -0.006581
C       1.273375    0.656571    0.042279
C       1.969848    0.379675    1.400726
C       0.871057   -0.367535    2.093587
C      -0.192769   -0.542199    1.266056
N      -1.142870   -1.232312    1.950816
N      -0.777066   -1.495011    3.109027
O       0.661783   -0.896707    3.264343
N      -0.072186   -0.018174   -0.042447
H      -0.305590    1.961294    0.900180
H      -0.246762    1.956140   -0.933865
H       1.881178    0.578456   -0.852139
H       2.865807   -0.236416    1.267834
H       2.274741    1.292487    1.922745
