19

C      -0.101776    1.308327    0.025917
N      -0.023312   -0.136332   -0.027084
C       0.541076   -0.720475    0.932050
O       0.683825   -2.060810    0.936387
C       1.211803   -2.671220    2.130525
C       0.099995   -2.890485    3.150961
C       1.851453   -3.973469    1.645631
O       0.912539   -4.821329    1.017692
H       0.402954    1.737304   -0.847333
H      -1.150528    1.621781   -0.028533
H       0.344228    1.749675    0.932663
H       0.971414   -0.216736    1.812620
H       1.996957   -2.023769    2.547027
H      -0.640041   -3.585920    2.749148
H       0.511145   -3.313821    4.072901
H      -0.396054   -1.948050    3.399905
H       2.687149   -3.727275    0.973204
H       2.256133   -4.523437    2.501533
H       0.521966   -4.309811    0.299031
