19

O      -0.112870    1.426253   -0.065538
C       0.027928    0.025354    0.134269
C      -1.346513   -0.599966   -0.003023
C      -2.033500   -0.639933   -1.415557
C      -2.198260   -2.157314   -1.276698
O      -3.334103   -2.859320   -1.633754
C      -0.845499   -2.809036   -1.107069
C      -1.478367   -2.124971    0.076308
O      -1.648033   -2.849399    1.239791
H       0.758411    1.828250   -0.001971
H       0.718976   -0.411471   -0.603695
H       0.432783   -0.198867    1.134303
H      -2.018319   -0.121613    0.719086
H      -2.988632   -0.111712   -1.430373
H      -1.417707   -0.290960   -2.251369
H      -3.207208   -3.222130   -2.517103
H      -0.900132   -3.889883   -1.017415
H       0.046933   -2.432479   -1.603052
H      -2.456831   -2.545253    1.667492
