16

O       0.101700    1.353216    0.011678
C       0.105129   -0.035287    0.052790
C      -0.357121   -0.762673    1.300968
C      -1.233903   -0.741526    0.075294
O      -2.345031    0.115890    0.143799
C      -1.485344   -1.975078   -0.728249
C      -2.798718   -2.629302   -0.746232
O      -2.383493   -1.781633   -1.832255
H      -0.829656    1.615592    0.050335
H       0.921572   -0.463212   -0.522536
H       0.119901   -1.696473    1.580898
H      -0.686835   -0.144843    2.129424
H      -2.734050    0.092823   -0.744000
H      -0.602294   -2.570390   -0.960070
H      -2.871403   -3.686732   -0.992117
H      -3.599514   -2.228174   -0.129859
