17

N      -0.056206    1.286315   -0.252375
C      -0.018513    0.048320    0.008030
O       1.143253   -0.616036    0.304547
C       1.019976   -1.992596    0.608967
C      -0.003036   -2.838745   -0.110799
C      -1.020495   -2.028064   -0.895735
C      -1.239509   -0.836214    0.059767
N      -1.301901   -1.503440    1.382205
C      -0.213976   -2.462350    1.344812
H       0.883162    1.688374   -0.209200
H       1.995425   -2.404858    0.834920
H       0.255579   -3.845322   -0.415499
H      -0.670167   -1.705224   -1.879517
H      -1.949405   -2.592390   -1.017709
H      -2.132434   -0.246248   -0.140952
H      -1.177735   -0.824698    2.129701
H      -0.155187   -3.167192    2.165711
