20

C       0.021872    1.529271   -0.017712
C       0.064399    0.019101   -0.026000
N      -0.858332   -0.739508    0.847925
C       0.595002   -0.737089    1.138369
C       1.342884   -2.045049    0.926015
O       1.682402   -2.282102   -0.428880
C       0.574268   -2.109455   -1.292636
C       0.176524   -0.628533   -1.400033
O      -1.037283   -0.484595   -2.122670
H       0.957788    1.949133   -0.402107
H      -0.791496    1.888021   -0.656551
H      -0.130026    1.918208    0.994720
H      -1.338360   -0.105014    1.481820
H       0.916513   -0.151685    1.997534
H       2.291506   -2.022801    1.470828
H       0.737489   -2.876871    1.320834
H       0.870572   -2.486533   -2.274460
H      -0.292967   -2.691973   -0.943423
H       0.937851   -0.098067   -1.982455
H      -1.726268   -0.840056   -1.545981
