16

C      -0.174860    1.411244   -0.014036
C      -0.047080   -0.036581   -0.003685
C       0.058371   -1.240436    0.002744
C       0.192432   -2.634143    0.013675
C       1.253500   -3.479382    0.175434
C       0.757682   -4.815109    0.094845
C      -0.588873   -4.693177   -0.116548
N      -1.598769   -5.608832   -0.351806
O      -0.957875   -3.398749   -0.169930
H       0.456722    1.866702   -0.785800
H      -1.209680    1.707358   -0.219279
H       0.108530    1.850416    0.949781
H       2.274432   -3.172023    0.338443
H       1.316306   -5.733143    0.178605
H      -1.409398   -6.522467    0.034849
H      -2.511046   -5.271791   -0.073333
