22

C      -0.115030    1.587787    0.025314
C       0.073551    0.077287    0.026957
C       1.074836   -0.609303   -0.947188
C       2.513896   -0.066368   -0.850231
N       2.781512   -0.812259    0.425819
C       2.135049   -0.098057    1.576568
C       0.731965   -0.657900    1.240537
C      -0.161853   -1.114602    2.371018
C       1.477724   -1.576344    0.211357
H       0.828818    2.124241    0.163623
H      -0.548752    1.925663   -0.922637
H      -0.792720    1.900874    0.827598
H      -0.901098   -0.402565   -0.131831
H       0.697717   -0.912242   -1.925417
H       3.158619   -0.461058   -1.642638
H       2.666404    1.017389   -0.791848
H       2.520687   -0.501683    2.519916
H       2.280096    0.988321    1.585378
H      -0.548293   -0.257852    2.937450
H      -1.024362   -1.678592    1.998293
H       0.380234   -1.755881    3.075064
H       1.486422   -2.666340    0.191077
