14

O      -0.034822    1.203970   -0.271400
C      -0.081272   -0.162685   -0.049747
C      -0.500265   -0.616567    1.339400
C      -1.488993   -0.695728    0.163663
C      -1.339468   -2.193483    0.295221
N      -1.187350   -3.354297   -0.307097
C      -0.231856   -3.929642    0.505928
N       0.263096   -3.179350    1.489981
N      -0.547182   -2.087935    1.386710
H       0.868004    1.508302   -0.127841
H       0.634236   -0.769525   -0.604679
H      -0.516506    0.006370    2.222493
H      -2.367182   -0.094527   -0.018359
H       0.095332   -4.950636    0.367925
