18

C      -0.024186   -0.724368   -1.767231
C      -0.106751    0.196924   -0.999741
C      -0.177181    1.320811   -0.070800
C       1.176486    2.050385    0.036428
C       1.516174    3.479988   -0.269331
C       0.645444    4.521753    0.460510
C      -0.371900    4.012296    1.410015
N       1.044135    4.010572    1.818418
C       1.809708    2.912129    1.110347
H       0.033947   -1.540217   -2.444186
H      -0.958675    2.006623   -0.412855
H      -0.491363    0.949378    0.913032
H       1.971731    1.412497   -0.346091
H       2.204622    3.770526   -1.052502
H       0.729603    5.579953    0.234326
H      -0.936899    4.771280    1.945876
H      -0.909795    3.087420    1.271428
H       2.749556    2.630410    1.569130
