15

O      -0.105858    1.424011   -0.052678
C       0.028138    0.061312   -0.017263
C      -1.019642   -1.010928    0.049904
N      -0.472855   -1.694593   -1.109485
C       0.787181   -0.869307   -1.019325
C       1.774430   -1.680334   -0.172411
O       2.742267   -2.311342   -0.535545
N       1.242506   -1.649948    1.106874
C       0.061724   -0.844542    1.175182
H       0.650507    1.823287    0.392937
H      -2.082447   -0.971530    0.258505
H      -0.319411   -2.696426   -0.990019
H       1.164530   -0.498675   -1.969884
H       1.469661   -2.374838    1.769500
H      -0.255504   -0.476742    2.142998
