15

O       0.258223    1.503118    0.174268
C       0.035297    0.125185    0.049853
C       0.119262   -0.656635    1.362532
N       0.909630   -0.802753    2.322927
N      -1.156517   -1.331985    1.188484
C      -2.155238   -0.243936    1.183478
C      -1.390747   -0.429035   -0.069016
C      -2.000059   -1.021859   -1.285813
O      -3.103642   -1.504952   -1.320044
H       0.303374    1.896866   -0.703215
H       0.686335   -0.335346   -0.708981
H       1.731025   -0.206378    2.204396
H      -3.174102   -0.615122    1.172005
H      -1.968475    0.638979    1.788260
H      -1.352754   -0.990863   -2.191230
