25

C      -1.900994   -0.042243   -0.973402
C      -0.568357    0.086873   -0.228186
C       0.598040   -0.512877   -0.995032
C       1.784179   -1.066219   -0.240061
C       0.817620   -1.996482   -0.947963
O       0.844908    0.056315   -2.253054
C       1.528368    1.318901   -2.264905
C       2.746755    1.181232   -3.177098
C       0.578540    2.416437   -2.746561
H      -1.839411    0.423619   -1.960465
H      -2.165673   -1.094386   -1.121523
H      -2.713441    0.435456   -0.417323
H      -0.358056    1.143443   -0.015936
H      -0.635068   -0.408598    0.747571
H       2.764908   -0.942631   -0.684786
H       1.773486   -1.031518    0.844312
H       0.144255   -2.600491   -0.349177
H       1.161508   -2.465126   -1.862386
H       1.867190    1.550718   -1.246280
H       3.293287    2.127244   -3.248031
H       3.429976    0.414516   -2.801391
H       2.430269    0.889286   -4.183676
H      -0.280794    2.519319   -2.078903
H       1.093231    3.381963   -2.793128
H       0.205470    2.178005   -3.747866
