18

C      -0.002653    1.441017    0.044594
C       0.009828   -0.068266   -0.015738
C      -0.477134   -0.753040   -1.296898
C      -1.131064   -2.057525   -0.784563
C      -0.549632   -2.186848    0.621377
N      -0.455838   -0.765948    1.185212
C       1.046310   -0.767502    0.832233
C       0.988142   -2.241781    0.628697
O       1.795423   -3.127676    0.674868
H       0.683091    1.863088   -0.697119
H      -1.008443    1.818350   -0.167193
H       0.292439    1.797858    1.034303
H      -1.197240   -0.113378   -1.815002
H       0.347283   -0.941836   -1.990242
H      -2.219291   -1.954498   -0.729738
H      -0.905286   -2.929740   -1.403196
H      -1.047086   -2.888731    1.290531
H       1.789381   -0.213113    1.396564
