14

O      -0.204084    1.397543    0.151688
C      -0.058132    0.064022    0.047422
C       0.062726   -0.668231   -1.092412
C       0.101069   -0.361478   -2.541895
C       1.470656   -0.615373   -3.168167
O       1.641704   -1.182979   -4.212637
O       0.190844   -1.986354   -0.683334
C       0.129818   -1.943253    0.655333
N      -0.017755   -0.755736    1.155841
H      -0.278710    1.600809    1.091911
H      -0.646483   -0.920068   -3.114780
H      -0.116326    0.708914   -2.654605
H       2.321542   -0.219683   -2.568623
H       0.205967   -2.880927    1.182764
