22

C       0.378378    1.583040   -0.262420
C       0.086688    0.123170    0.010467
C       1.200385   -0.891593    0.119324
C       0.373118   -0.550520    1.335985
C       0.996658    0.183794    2.514544
C       1.788853   -0.734176    3.412597
C       1.092714   -1.841925    4.157287
N       3.045884   -0.509197    3.477007
O       3.698578   -1.432741    4.316285
H       1.321075    1.905390    0.188214
H       0.457273    1.763003   -1.340283
H      -0.415725    2.232060    0.124234
H      -0.815416   -0.233390   -0.481413
H       1.079722   -1.864290   -0.345203
H       2.219219   -0.515624    0.100631
H      -0.356884   -1.301296    1.628849
H       1.667123    0.973507    2.169047
H       0.202465    0.662612    3.105282
H       1.312928   -2.812941    3.699308
H       1.454219   -1.892055    5.187552
H       0.009534   -1.700846    4.157417
H       4.607421   -1.116436    4.290732
