14

N      -0.054108    1.250264   -0.385817
C      -0.014866    0.043362   -0.066735
O       1.047403   -0.770819    0.295241
C       0.148522   -1.914263    0.480839
C      -1.055953   -1.052026    0.081714
C      -1.919516   -0.980020    1.351022
O      -1.132074   -1.535582    2.419642
C      -0.031921   -2.199074    1.972899
O       0.665064   -2.860314    2.681335
H       0.868597    1.686796   -0.358984
H       0.467068   -2.778810   -0.098437
H      -1.614819   -1.295244   -0.819846
H      -2.189016    0.043138    1.619810
H      -2.830864   -1.577682    1.253269
