19

C       0.073406    1.187144   -0.469896
O      -0.153887   -0.052473    0.198044
C      -1.392745   -0.572424    0.094832
N      -1.476407   -1.732170    0.821359
N      -2.316799    0.003702   -0.570118
C      -3.593531   -0.632537   -0.676378
C      -4.700135   -0.263322    0.309758
C      -4.699980    0.299540   -1.093790
O      -4.353872    1.628427   -1.305383
H       1.129060    1.412974   -0.313481
H      -0.147309    1.101931   -1.536984
H      -0.549183    1.979100   -0.044340
H      -0.608725   -2.195607    1.035932
H      -2.271988   -2.323464    0.653859
H      -3.599490   -1.646140   -1.081586
H      -5.431273   -1.021188    0.573249
H      -4.432141    0.421875    1.106239
H      -5.452570   -0.057922   -1.791284
H      -3.387157    1.648812   -1.208223
