19

C      -0.000986    1.485002    0.021691
C       1.328923    0.776413    0.031625
C       1.996677    0.553780    1.400556
C       0.860264   -0.009321    2.196769
C       0.277230    0.187651    3.371893
C      -1.097582   -0.444273    3.342083
O      -1.333723   -0.766418    1.968137
C      -0.083652   -0.765381    1.288341
C       0.025317   -0.020282   -0.032284
H      -0.348577    1.961954    0.932626
H      -0.280165    2.003389   -0.888623
H       1.967032    0.863951   -0.840450
H       2.815927   -0.169904    1.295309
H       2.418197    1.465903    1.834884
H       0.654586    0.747784    4.218372
H      -1.160442   -1.351824    3.967255
H      -1.882612    0.242001    3.687259
H       0.244196   -1.808320    1.126583
H      -0.275119   -0.519350   -0.945908
