16

C       0.107791    1.476691    0.211422
C       1.423151    1.773694   -0.064022
C       1.439413    1.225864   -1.574682
C       0.501867   -0.091914   -1.415733
C       0.006293   -0.020350    0.106615
C       1.409088   -0.618260    0.417815
C       2.355106    0.616562    0.352295
C       2.594743    0.274676   -1.135507
N       1.691711   -0.955233   -1.041626
H      -0.693293    2.050388   -0.260853
H       1.403262    1.822575   -2.484926
H      -0.143624   -0.421400   -2.236173
H      -0.900750   -0.557959    0.378054
H       1.525197   -1.408627    1.158039
H       3.150313    0.778099    1.077347
H       3.563729    0.223650   -1.633392
