20

C      -0.876566    1.173254   -0.055479
C       0.061403   -0.020585   -0.131909
C       1.443301    0.126661   -0.824192
C       2.036184   -0.840098    0.226315
O       3.334184   -0.664624    0.708645
C       0.801806   -0.524813    1.168171
C       1.116454    0.561446    2.204715
C       0.195373   -1.681153    1.812767
N      -0.291797   -2.610055    2.301249
H      -0.384455    2.056970    0.362184
H      -1.233342    1.437528   -1.056605
H      -1.754204    0.950998    0.560466
H      -0.470333   -0.872185   -0.566327
H       1.526536   -0.155338   -1.875276
H       1.845429    1.139600   -0.704188
H       1.978733   -1.876819   -0.113043
H       3.475878    0.270772    0.887438
H       1.538346    1.452703    1.730108
H       0.214928    0.866175    2.741640
H       1.839466    0.186533    2.933670
