21

C      -0.186378    1.365661    0.073884
O      -0.114063   -0.037489   -0.006749
C       0.673481   -0.486102   -1.086780
C       0.697988   -2.010809   -1.043006
C       1.375754   -2.658974   -2.269847
C       2.887056   -2.332096   -2.368743
O       3.500081   -2.938591   -3.483467
C       1.207211   -4.111769   -2.252532
C       1.124934   -5.312123   -2.232134
H       0.807661    1.819514    0.214512
H      -0.637492    1.805310   -0.830066
H      -0.811610    1.612093    0.935391
H       0.248954   -0.137123   -2.045499
H       1.689584   -0.063728   -1.013962
H       1.198748   -2.341715   -0.126504
H      -0.336302   -2.362033   -0.979057
H       0.902299   -2.273973   -3.183830
H       3.022101   -1.254607   -2.497802
H       3.372962   -2.622213   -1.422973
H       3.326844   -3.886005   -3.419922
H       1.019329   -6.368882   -2.215168
