16

C      -0.214363    1.403811    0.371331
O       0.082396    0.036624    0.094571
C       0.717799   -0.642484    1.058455
C       1.095417   -1.947022    1.024070
O       1.713893   -2.215417    2.230562
C       1.668108   -1.061171    2.906947
C       2.271272   -0.964080    4.272484
O       2.020459    0.294483    4.845489
N       1.091381   -0.086179    2.270091
H       0.699463    1.980250    0.546551
H      -0.726267    1.778446   -0.515814
H      -0.864961    1.498960    1.246347
H       1.017944   -2.750210    0.316089
H       1.855415   -1.756204    4.911820
H       3.354333   -1.157520    4.199190
H       1.644574    0.848409    4.148456
