10

F       0.374046    0.143445    0.207569
C      -0.031495    1.402914    0.025914
F       1.048787    2.151862   -0.210380
F      -0.821851    1.446146   -1.042423
C      -0.751523    1.900503    1.254636
N      -1.989286    2.309729    1.217929
O      -2.235205    2.667410    2.541473
C      -1.106490    2.426977    3.213678
N      -0.146539    1.952637    2.485968
H      -1.104310    2.645906    4.271167
