23

C      -0.002013    1.510074    0.042166
C       0.011912   -0.008972    0.015764
O       0.691506   -0.474399    1.162435
C       0.763605   -1.879621    1.238892
C       1.513218   -2.259671    2.508453
C       1.639883   -3.772402    2.674823
C       2.386381   -4.190454    3.937174
C       2.543704   -5.685960    4.156580
O       2.828025   -3.380665    4.718942
H       1.018758    1.902758    0.045507
H      -0.523240    1.902917   -0.835977
H      -0.510368    1.873182    0.939892
H      -1.018310   -0.405114   -0.003626
H       0.511110   -0.375549   -0.898063
H      -0.251426   -2.316855    1.243932
H       1.278221   -2.287028    0.349691
H       2.507483   -1.803134    2.491193
H       0.997626   -1.832476    3.373879
H       0.651281   -4.254072    2.694512
H       2.155161   -4.224881    1.814886
H       3.081436   -6.141291    3.317284
H       3.088495   -5.869102    5.083372
H       1.562271   -6.171134    4.204269
