16

N      -0.179596    1.048877   -0.925116
C      -0.033049    0.081573   -0.123294
C      -1.230988   -0.583201    0.518936
C      -0.986316   -2.028430    0.850345
C       0.236723   -2.442440    1.154454
C       1.383530   -1.458946    1.141527
O       1.207420   -0.410735    0.167374
C       1.614754   -0.890965    2.474057
C       1.797594   -0.435153    3.570704
H       0.731850    1.379448   -1.248479
H      -1.473588   -0.034592    1.441106
H      -2.081261   -0.443268   -0.150489
H      -1.831493   -2.709249    0.855697
H       0.466353   -3.463210    1.437580
H       2.299693   -1.963352    0.814313
H       1.961940   -0.028030    4.538042
