18

C       0.077060    1.549766    0.408707
C       1.300797    0.797906   -0.031927
C       2.253101    0.302909    1.050330
C       1.420482   -0.609452    1.986939
N       1.037820   -0.002327    3.276061
C      -0.227289   -0.078682    3.334204
O      -0.928998   -0.612543    2.308989
C       0.059372   -0.882400    1.270451
C      -0.028123    0.073891    0.100441
H       0.009593    1.878971    1.439469
H      -0.384067    2.225547   -0.303081
H       1.709425    1.009166   -1.013846
H       3.061893   -0.275536    0.591831
H       2.715389    1.114045    1.620097
H       1.973813   -1.528397    2.204494
H      -0.837578    0.259486    4.165205
H      -0.090037   -1.918053    0.960365
H      -0.596274   -0.230215   -0.770794
