19

C       0.314492    1.371874    0.409328
O       0.729679    0.008291    0.243502
C       0.173424   -0.870488    1.091284
O      -0.626623   -0.564182    1.942648
C       0.700667   -2.289158    0.877863
C       1.314120   -2.549608   -0.497009
C       1.714706   -2.575865    2.018602
C       1.120461   -2.853239    3.381306
O       2.900947   -2.584412    1.800515
H       0.567218    1.729482    1.410349
H       0.854710    1.938259   -0.348753
H      -0.764420    1.464618    0.264049
H      -0.168616   -2.931829    1.055792
H       1.579579   -3.606061   -0.590805
H       0.610752   -2.295681   -1.293558
H       2.222490   -1.962028   -0.629087
H       0.652608   -3.845637    3.368188
H       1.902121   -2.838195    4.141698
H       0.330751   -2.132312    3.609545
