21

C      -0.064733    1.496016    0.007036
C       0.063521   -0.008592   -0.000233
C      -0.809770   -0.832769    0.913275
C       0.691701   -0.786116    1.147547
C       1.463100   -1.893037    0.515238
C       1.352880   -1.875603   -0.816616
C       1.923750   -2.860829   -1.783095
O       2.664644   -3.846690   -1.085905
C       0.532696   -0.690078   -1.293058
H       0.871341    1.976555   -0.301220
H      -0.851354    1.833795   -0.678911
H      -0.317388    1.868820    1.004841
H      -1.443898   -0.284433    1.603852
H      -1.232993   -1.765720    0.553432
H       1.065652   -0.293717    2.039551
H       2.008501   -2.641817    1.075002
H       1.104755   -3.315920   -2.369471
H       2.557603   -2.325676   -2.514143
H       3.025545   -4.460411   -1.731475
H      -0.308393   -0.994123   -1.931295
H       1.142346   -0.004252   -1.900898
