15

O      -0.088965    1.345334   -0.045487
N       0.014586   -0.048233   -0.090735
C      -1.130275   -0.607851   -0.021011
C      -2.469593   -0.043318    0.097495
C      -3.391140   -1.014585    0.100302
C      -2.798728   -2.392748   -0.037542
C      -1.254943   -2.137973   -0.023091
C      -0.558992   -2.777935   -1.136107
N      -0.030984   -3.305716   -2.017926
H       0.830303    1.621598   -0.126100
H      -2.647282    1.019983    0.164920
H      -4.461200   -0.859203    0.175748
H      -3.101901   -3.060914    0.775241
H      -3.117046   -2.872249   -0.969767
H      -0.822779   -2.527436    0.904840
