20

C      -0.198208    1.714579   -0.605109
C      -0.011392    0.275042   -0.166667
O       0.154354   -0.041219    0.989602
C       0.032140   -0.785641   -1.274087
C       1.472254   -0.832059   -1.785227
C      -0.801018   -2.079926   -1.054031
C      -2.025593   -1.150907   -1.199340
N      -1.106451   -0.641000   -2.332852
C      -0.886687   -2.145035   -2.594776
H       0.685388    2.048004   -1.161934
H      -1.046650    1.802596   -1.289641
H      -0.329779    2.352513    0.269771
H       2.152709   -0.932372   -0.933844
H       1.667338   -1.663575   -2.463267
H       1.722584    0.094044   -2.312696
H      -0.627100   -2.883203   -0.332420
H      -2.954402   -1.587112   -1.573838
H      -2.229601   -0.420775   -0.413658
H      -0.000941   -2.380976   -3.182666
H      -1.768042   -2.627680   -3.024284
