17

C       0.035753    1.503932   -0.296588
C      -0.034087    0.037129    0.160647
C      -1.429086   -0.524112    0.082186
C      -1.879600   -1.323499   -0.975289
N      -3.120024   -1.775058   -1.039073
C      -3.902568   -1.397678   -0.011781
N      -5.211060   -1.773501   -0.043552
N      -3.514960   -0.658973    1.046948
N      -2.269239   -0.224710    1.078182
H       1.054655    1.892155   -0.205569
H      -0.275551    1.608791   -1.341209
H      -0.625238    2.123744    0.315867
H       0.639139   -0.575988   -0.449392
H       0.309486   -0.035815    1.197341
H      -1.207801   -1.610877   -1.782887
H      -5.458916   -2.518666   -0.672121
H      -5.728213   -1.685024    0.815288
