16

C      -0.088882    1.159315    0.963974
C      -0.054619   -0.037942    0.034443
O      -1.251626   -0.805778    0.262521
C      -1.397672   -1.919153   -0.480768
N      -0.556244   -2.304692   -1.341373
C      -2.691389   -2.673133   -0.176675
N      -3.470071   -2.111898    0.777400
O      -2.953033   -3.697616   -0.776340
H       0.808584    1.767043    0.816353
H      -0.963252    1.785934    0.765183
H      -0.120013    0.843161    2.010753
H      -0.023532    0.255762   -1.019756
H       0.812688   -0.680599    0.216997
H      -0.912939   -3.169509   -1.754669
H      -3.188645   -1.257880    1.225959
H      -4.339247   -2.556198    1.021424
