19

C      -0.114191   -1.227732   -0.134166
C      -0.041347   -0.030172   -0.041810
C       0.018599    1.414405    0.042499
C       0.098980    2.115771    1.450635
C       1.571316    1.611927    1.552652
C       1.415608    2.140329    0.093685
C       0.660086    3.337134    0.699722
C       0.017353    4.536701    0.097806
C       1.110616    4.675724    1.161087
H      -0.175666   -2.284748   -0.212948
H      -0.696698    1.877670   -0.643159
H      -0.671248    2.099293    2.222719
H       2.232069    2.186920    2.204178
H       1.710193    0.536155    1.667932
H       2.164156    2.152182   -0.699519
H       0.269893    4.812653   -0.921459
H      -0.998607    4.788981    0.385917
H       0.812057    5.019536    2.146700
H       2.080340    5.043181    0.839548
