19

N       0.465439   -0.127785    0.835765
C      -0.165607    0.309880   -0.285763
O       0.101472    1.344829   -0.862812
C      -1.293897   -0.613398   -0.764629
N      -1.184086   -1.977724   -0.289229
C      -0.259353   -2.907373   -0.986613
C      -1.290657   -4.043781   -0.760211
O      -1.044730   -4.880078    0.343768
C      -2.317405   -2.904735   -0.523086
H       1.163169    0.455648    1.265536
H       0.139239   -0.966637    1.286254
H      -2.231321   -0.187624   -0.384886
H      -1.328874   -0.535695   -1.864018
H      -0.128368   -2.662037   -2.052082
H       0.724486   -3.027213   -0.522088
H      -1.481604   -4.704797   -1.605666
H      -0.886962   -4.317547    1.110226
H      -3.006103   -3.022415    0.320519
H      -2.892543   -2.666362   -1.430859
