18

C      -0.075862    1.413544    0.139351
N       1.418323    1.548171    0.144842
C       1.561922    0.089651    0.039710
C       2.581988   -0.768966   -0.704731
O       2.555146   -1.737680    0.370061
C       1.902714   -0.792897    1.257221
C       0.570849   -1.245778    1.836219
O      -0.417220   -1.059368    0.815626
C       0.046610   -0.122082   -0.125137
H      -0.515027    1.669235    1.108677
H      -0.589438    1.981693   -0.641826
H       1.764528    2.032946   -0.676051
H       2.278465   -1.199340   -1.665920
H       3.572832   -0.303305   -0.805674
H       2.595682   -0.387540    2.001753
H       0.566783   -2.301615    2.122776
H       0.333009   -0.638967    2.722544
H      -0.316373   -0.424057   -1.111355
