18

C      -0.130124    1.478530    0.032249
C      -0.011092   -0.008725   -0.053366
C       0.054480   -0.783617   -1.135893
C       0.135007   -2.253714   -0.816670
C       0.430040   -2.265168    0.699309
C       0.026406   -0.861174    1.217223
O       0.995664   -0.439838    2.171834
C      -1.312157   -0.861414    1.853648
N      -2.356210   -0.819918    2.349486
H       0.712910    1.908412    0.586746
H      -0.147184    1.934139   -0.960501
H      -1.047680    1.773180    0.557570
H       0.028065   -0.409179   -2.154170
H      -0.812443   -2.757167   -1.049674
H       0.908684   -2.771466   -1.393806
H      -0.067609   -3.070439    1.241327
H       1.504450   -2.347042    0.882316
H       0.672192    0.352575    2.614991
