21

C      -0.022757    1.570531    0.009309
C       0.046709    0.043790    0.015288
C       0.794299   -0.567138   -1.192786
C       1.301159   -1.946404   -0.717046
C       1.547115   -1.775175    0.774403
C       2.278821   -0.543652    1.226779
C       0.754561   -0.556178    1.242492
C       0.069598   -0.526132    2.499480
C      -0.529461   -0.481847    3.542908
H       0.980865    2.010240    0.017790
H      -0.542329    1.936967   -0.882295
H      -0.558847    1.940747    0.888573
H      -0.977990   -0.350257    0.028189
H       0.153393   -0.638323   -2.075674
H       1.637123    0.074896   -1.472166
H       0.530289   -2.711336   -0.867738
H       2.192511   -2.274380   -1.263030
H       1.595691   -2.655996    1.404288
H       2.765642   -0.581218    2.193897
H       2.784407    0.078927    0.495896
H      -1.050834   -0.449026    4.466876
