15

O      -0.028619    0.025789   -0.483466
C      -0.066985    1.194307   -0.161756
C       1.113719    1.963556    0.166830
C       2.095816    2.603209    0.440054
C      -1.379369    1.921769   -0.086288
C      -2.378965    2.225992   -1.238563
C      -2.839324    2.937370    0.055045
C      -2.581506    1.642748    0.860582
O      -1.431547    3.345237    0.304212
H       2.963474    3.168224    0.681146
H      -1.989141    2.881380   -2.017449
H      -2.977818    1.397830   -1.621326
H      -3.606004    3.698230    0.192476
H      -3.197209    0.766057    0.652473
H      -2.369027    1.787406    1.919867
