19

C      -0.133845    1.469419   -0.114270
N       0.018581    0.022527   -0.019592
C       1.381947   -0.510461   -0.223941
C       0.744281   -0.502563    1.104675
C       1.135628    0.090145    2.450134
C      -0.126703   -0.490061    3.167836
C       0.783544   -1.149500    4.195024
N       1.630580   -1.309324    2.932975
C       0.323772   -1.552818    2.113319
H       0.736326    2.031403    0.263091
H      -0.290132    1.746206   -1.161484
H      -1.016335    1.780165    0.454310
H       1.449791   -1.420857   -0.813179
H       2.183457    0.207429   -0.396090
H       1.697658    0.988395    2.709348
H      -1.112729   -0.026074    3.273432
H       1.252473   -0.517513    4.956452
H       0.468689   -2.103411    4.630545
H      -0.062849   -2.562366    1.970606
