15

C      -0.266047    1.427383    0.195758
N       0.038467    0.006000    0.116254
C       1.387442   -0.395785   -0.256781
C       0.875175   -0.630475    1.124231
C       1.492891    0.125840    2.296818
C       0.542153    0.345927    3.388557
N      -0.216111    0.515307    4.243783
H       0.589003    2.066709    0.467936
H      -0.626839    1.758212   -0.782638
H      -1.064077    1.586574    0.926726
H       1.472003   -1.213073   -0.968016
H       2.138702    0.386485   -0.373850
H       0.537386   -1.628643    1.396428
H       2.339377   -0.451069    2.687464
H       1.894662    1.093474    1.982754
