15

C      -0.068486    1.567076    0.009770
C       1.450701    1.284894   -0.005382
C       1.248200    0.107826    1.021762
C       2.232021   -0.987711    0.643018
C       2.220037   -0.980506   -0.692196
C       1.229688    0.118963   -1.041376
C       0.051667    0.026537    0.000375
H      -0.475733    2.024000    0.916658
H      -0.491887    2.033717   -0.884688
H       2.273405    2.005902   -0.008873
H       1.047769    0.335457    2.069895
H       2.793713   -1.609073    1.326461
H       2.769318   -1.594396   -1.392276
H       1.010504    0.357885   -2.083224
H      -0.752167   -0.715450    0.003583
