22

C       0.360847    1.539503   -0.196078
C      -0.178878    0.134242    0.095295
C       0.531089   -0.526149    1.260050
C       0.559252   -2.009397    1.492574
C      -0.118978   -3.020270    0.589825
C       0.474516   -4.426167    0.738732
C       1.844913   -1.291024    1.070593
C       2.368914   -1.488136   -0.250117
N       2.790063   -1.647318   -1.317106
H       1.417375    1.502228   -0.478900
H      -0.189769    2.007224   -1.017395
H       0.269611    2.189668    0.681077
H      -1.250280    0.188636    0.326645
H      -0.088240   -0.480712   -0.804873
H       0.526930    0.079311    2.163979
H       0.572306   -2.309043    2.538389
H      -1.188876   -3.041255    0.833268
H      -0.046368   -2.707024   -0.455780
H       0.402790   -4.779928    1.773212
H      -0.053673   -5.142799    0.103155
H       1.530460   -4.437779    0.451553
H       2.613146   -1.158202    1.824762
