16

O       0.042873    1.423547    0.098871
C      -0.040428    0.039149    0.333549
C      -1.422813   -0.489502   -0.098268
O      -1.663011   -0.085860   -1.438256
C      -1.516722   -1.978313    0.071197
N      -1.464830   -2.741990   -0.993631
O      -1.521060   -4.050997   -0.537204
C      -1.604970   -4.031722    0.800566
C      -1.606746   -2.756337    1.262145
H      -0.287499    1.549914   -0.800491
H       0.733570   -0.522476   -0.216205
H       0.119022   -0.125927    1.404779
H      -2.183360    0.002360    0.521055
H      -1.440939   -0.830760   -2.012217
H      -1.660596   -4.996643    1.280289
H      -1.669758   -2.417109    2.282401
