17

O       0.017539   -0.083949    0.064197
C      -0.035967    1.124324    0.060205
C      -1.311095    1.949872    0.072752
C      -1.116783    3.307807    0.732394
C      -2.326737    4.166568    0.994295
C      -1.603807    3.533606    2.153527
N       0.088684    4.013463    0.390388
C       1.085431    3.302884    0.052288
N       1.102972    1.910718   -0.028387
H      -1.601192    2.085662   -0.979546
H      -2.098473    1.362361    0.548572
H      -2.197379    5.231348    0.841280
H      -3.298521    3.774065    0.714187
H      -2.069094    2.695742    2.661899
H      -0.996497    4.172260    2.783249
H       2.036091    3.775076   -0.188762
H       1.976361    1.421854   -0.162540
