18

C       0.074424    1.527650    0.102436
C      -0.142218    0.024057   -0.102719
C       0.622952   -0.516475   -1.301256
C       2.152661   -0.816539   -1.145228
O       1.798993   -1.983339   -0.282286
C       0.837415   -2.060189   -1.423824
C       2.022304   -1.775036   -2.320866
N       2.540064   -2.223745   -3.374601
O       3.735507   -1.540692   -3.690396
H       1.128140    1.755180    0.295711
H      -0.232230    2.100855   -0.779528
H      -0.505026    1.893761    0.955089
H       0.160880   -0.530222    0.789480
H      -1.210689   -0.174285   -0.255837
H       0.348331   -0.016125   -2.236773
H       2.976366   -0.180065   -0.832019
H       0.117849   -2.876230   -1.432636
H       4.017181   -1.995731   -4.491332
