20

C      -0.069137    1.523614   -0.070096
C       1.483110    1.498837   -0.052215
C       1.412967    0.078708    0.574156
C      -0.061076   -0.021965    0.083215
C       2.433479   -0.968549    0.135750
C       2.178142   -2.385744    0.722232
O       2.160018   -3.256429   -0.436428
C       2.283092   -2.429598   -1.500812
N       2.431207   -1.184239   -1.328024
H      -0.479426    2.017621    0.815587
H      -0.557167    1.937822   -0.955139
H       1.898216    1.452850   -1.061828
H       2.002095    2.277008    0.513178
H       1.442084    0.147440    1.668622
H      -0.796293   -0.473100    0.754437
H      -0.114497   -0.518908   -0.889065
H       3.431616   -0.606954    0.416881
H       2.962685   -2.734648    1.397346
H       1.208859   -2.470327    1.224713
H       2.247209   -2.932934   -2.461114
