16

C       0.119071    1.534471    0.052103
C       0.073929    0.079747    0.069860
C       0.031955   -1.124339    0.082597
C       0.020551   -2.560525    0.089001
C      -0.558588   -3.327065    1.244441
C      -1.286880   -3.358421   -0.085229
C      -2.575093   -2.636562   -0.206283
O      -3.500911   -3.013329   -0.881664
H       0.973758    1.894288   -0.531163
H      -0.787631    1.955385   -0.396309
H       0.211982    1.944888    1.063683
H       0.868655   -3.024019   -0.407214
H      -0.064649   -4.237744    1.561880
H      -1.009680   -2.747660    2.042528
H      -1.224003   -4.263042   -0.679333
H      -2.634616   -1.699930    0.391005
