16

C      -0.231804    1.530098    0.094283
C       0.093485    0.033124   -0.035354
C       0.770014   -0.514096    1.195675
C       0.140884   -1.428480    2.048280
N       0.718617   -1.909648    3.148800
C       1.951401   -1.468958    3.403708
C       2.590113   -0.560440    2.563441
N       2.009269   -0.081405    1.464455
H       0.679320    2.097838    0.300748
H      -0.676607    1.911756   -0.829297
H      -0.937311    1.711360    0.911603
H      -0.820680   -0.536697   -0.233190
H       0.760968   -0.117198   -0.891368
H      -0.864069   -1.782216    1.828514
H       2.442265   -1.849085    4.295762
H       3.597163   -0.212605    2.781567
