17

C      -0.139950    1.558533    0.047144
C       0.063659    0.074235   -0.008430
C      -0.768845   -0.939066    0.776190
C       0.716529   -0.904227    0.971448
N       1.373928   -1.567112   -0.158525
C       1.930385   -2.805149   -0.312137
O       2.267589   -3.268672   -1.379512
C       0.794260   -0.664126   -1.107051
N       0.887647   -0.510210   -2.349556
H       0.788174    2.092648   -0.177300
H      -0.888805    1.869316   -0.688248
H      -0.488871    1.871746    1.035588
H      -1.362702   -0.498576    1.572251
H      -1.227708   -1.790283    0.282318
H       1.245348   -0.708879    1.894637
H       2.069691   -3.325565    0.656168
H       1.495476   -1.223622   -2.755780
