23

O      -0.057718    1.450875   -0.049791
C      -0.017333    0.036888    0.028607
C       0.222050   -0.564140    1.447766
C      -0.937597   -1.565497    1.170690
C      -1.430892   -0.588237    0.061223
C      -0.492979   -2.949847    0.675231
C       0.766744   -2.985440   -0.209444
C       0.744779   -2.024449   -1.407071
C       0.903764   -0.531854   -1.062644
H       0.849113    1.774047   -0.093935
H       1.212440   -0.963530    1.684780
H      -0.057188    0.173871    2.203618
H      -1.641887   -1.696131    1.996135
H      -2.140659    0.140812    0.459366
H      -1.835052   -1.008402   -0.863851
H      -0.315967   -3.595602    1.544709
H      -1.329518   -3.404296    0.126308
H       1.655607   -2.780826    0.401342
H       0.892229   -4.010188   -0.578597
H       1.552211   -2.294348   -2.097739
H      -0.186964   -2.172234   -1.967345
H       0.727113    0.057169   -1.970560
H       1.945368   -0.341351   -0.761285
