18

C      -0.024512    1.536362    0.020937
C      -0.002874    0.000174   -0.036903
C      -1.435290   -0.557319   -0.004221
C       0.819820   -0.539777   -1.234925
C       1.954094   -1.311512   -0.611881
C       1.924116   -1.307377    0.725867
C       0.761369   -0.529688    1.203053
O       0.435222   -0.323693    2.350602
H       0.988051    1.951298   -0.027193
H      -0.600632    1.949396   -0.813876
H      -0.479925    1.868004    0.958290
H      -2.025128   -0.164624   -0.839269
H      -1.439037   -1.650647   -0.070492
H      -1.924091   -0.275253    0.932544
H       0.224167   -1.186447   -1.891769
H       1.202688    0.265818   -1.874346
H       2.704897   -1.810124   -1.216693
H       2.622877   -1.786274    1.399760
