17

C       0.892358    1.414435    0.194795
N       0.492771    0.018477    0.120100
C       0.160052   -0.489307   -0.982833
C      -0.292873   -1.936905   -1.055863
N       0.390864   -2.811277   -2.002659
C       0.767465   -2.483844   -3.157198
O       0.633665   -1.317636   -3.855851
C      -0.264802   -0.358018   -3.333068
O       0.198261    0.239900   -2.155485
H       1.987186    1.480537    0.175093
H       0.500386    2.037577   -0.616448
H       0.562734    1.822038    1.154836
H      -0.136163   -2.336511   -0.053148
H      -1.376268   -1.982403   -1.234883
H       1.311484   -3.197580   -3.773612
H      -0.314637    0.433953   -4.079954
H      -1.252703   -0.811667   -3.194085
