17

C       0.075345    1.541681   -0.122739
N       0.049196    0.082613   -0.034361
C      -1.107439   -0.488129    0.713052
C      -0.284094   -1.738297    1.163819
N      -0.599292   -1.615704    2.623294
C      -0.542260   -0.200486    2.157549
C       0.679400   -0.521790    1.183212
C       2.138276   -0.474266    1.494137
O       2.746073   -1.362597    2.034001
H       1.056653    1.871066   -0.477389
H      -0.666065    1.862418   -0.861544
H      -0.141163    2.060378    0.826407
H      -2.137894   -0.436718    0.353759
H      -0.134868   -2.683054    0.643866
H      -1.571119   -1.885637    2.797355
H      -0.686399    0.647411    2.827188
H       2.640517    0.473653    1.193670
