23

C      -0.247370    1.313207   -0.345115
C       1.159206    1.120671    0.166524
C       0.216693   -0.056857    0.081535
C      -0.298880   -0.727039    1.318478
C      -0.713370    0.039910    2.615693
C      -1.473957   -1.281652    2.922282
C      -1.720361   -1.375629    1.391189
C      -0.316581   -2.278134    3.124162
C       0.575636   -1.860234    1.911118
H      -0.948071    1.838956    0.294261
H      -0.389883    1.498034   -1.404201
H       1.980942    1.179427   -0.538610
H       1.391289    1.510132    1.152166
H       0.416300   -0.751559   -0.732349
H       0.076555    0.352721    3.306380
H      -1.391981    0.873514    2.418252
H      -2.295280   -1.312442    3.638701
H      -2.501608   -0.695499    1.043113
H      -1.858147   -2.367770    0.948665
H       0.187143   -2.140973    4.085760
H      -0.649190   -3.318860    3.066278
H       0.725255   -2.673777    1.194179
H       1.562577   -1.496315    2.212165
