21

C       0.046677    1.299827    0.335444
O      -0.019456   -0.008360   -0.200571
C      -1.293861   -0.564777   -0.155110
C      -1.787511   -1.134675    1.151020
C      -1.436413   -2.059944   -0.013515
C      -2.568373   -2.432155   -0.908401
C      -3.091225   -1.370925   -1.535277
C      -4.262131   -1.349186   -2.465609
C      -2.330606   -0.102325   -1.183537
H       1.092063    1.613471    0.285081
H      -0.563029    2.011383   -0.240016
H      -0.286869    1.325114    1.382751
H      -1.078127   -1.107537    1.971951
H      -2.831045   -1.031615    1.432168
H      -0.565449   -2.697328    0.088220
H      -2.935400   -3.448605   -1.003138
H      -4.664877   -2.353016   -2.626979
H      -5.072739   -0.718293   -2.078400
H      -3.985235   -0.931881   -3.442643
H      -2.996615    0.682199   -0.801780
H      -1.822382    0.315315   -2.064426
