17

O      -0.026172    0.111940    0.647844
C      -0.001000    1.206211    0.123309
N       1.068548    1.745627   -0.517072
C       2.356302    1.089347   -0.598366
C       3.473254    2.024081   -0.123334
C       4.899378    1.446993   -0.315251
O       5.568030    2.425018   -1.152735
C       4.634411    3.361756   -1.424994
N       3.471826    3.265253   -0.929914
H      -0.872253    1.890383    0.111414
H       1.011732    2.685215   -0.879729
H       2.300258    0.192347    0.023429
H       2.567981    0.776094   -1.630426
H       3.280179    2.290359    0.921842
H       5.464566    1.350872    0.613822
H       4.908433    0.487282   -0.842182
H       4.977773    4.158473   -2.075791
