21

C       0.009472    1.549168   -0.009945
C      -0.039741    0.023127    0.023742
C      -1.468525   -0.503598   -0.010631
O      -2.428675    0.239981   -0.065322
N      -1.613760   -1.891849    0.024913
C      -0.477106   -2.807399    0.092402
C      -2.907167   -2.420500   -0.002214
N      -3.132167   -3.666215    0.028199
C      -4.516147   -4.092568   -0.005983
H       1.046111    1.896560    0.014153
H      -0.467699    1.934510   -0.913815
H      -0.521923    1.975289    0.844062
H       0.515174   -0.402386   -0.822068
H       0.459849   -0.362776    0.921323
H       0.104928   -2.653526    1.006054
H      -0.882066   -3.818184    0.093894
H       0.183203   -2.686128   -0.771228
H      -3.667724   -1.638909   -0.051694
H      -4.678688   -4.743780   -0.872870
H      -4.738369   -4.690902    0.885416
H      -5.236937   -3.261540   -0.055463
