17

O       0.037190    1.368333   -0.363758
C       0.061003   -0.007400   -0.035057
C       0.704832   -0.259959    1.356048
C      -0.317612   -0.453114    2.481096
O      -0.061757   -0.326819    3.651839
C      -1.699658   -0.829894    1.952801
C      -1.580715   -1.824805    0.778423
C      -1.378611   -0.531964   -0.033629
O      -2.066171    0.230627    1.012352
H      -0.633970    1.764175    0.209495
H       0.650599   -0.494632   -0.818665
H       1.307529   -1.177153    1.334127
H       1.387856    0.553835    1.609769
H      -2.430949   -0.975930    2.748548
H      -0.780253   -2.567037    0.796645
H      -2.535060   -2.304761    0.558323
H      -1.859652   -0.414607   -1.007070
