14

C      -0.039489    1.568615    0.112947
C      -0.018450    0.076880    0.031855
C       0.067343   -0.721643   -1.080894
O       0.059276   -2.038436   -0.770427
C      -0.033810   -2.100932    0.574404
C      -0.084504   -0.851361    1.116909
N       0.160209   -0.391347   -2.462273
O       0.166425    0.812381   -2.728607
O       0.226254   -1.303675   -3.275899
H       0.864197    1.997757   -0.328278
H      -0.881150    1.979819   -0.450957
H      -0.115893    1.894386    1.152774
H      -0.052825   -3.093456    0.994022
H      -0.160093   -0.607349    2.165228
