19

C       0.030475    1.395031    0.009270
C       1.344703    0.662476   -0.007217
C       2.028800    0.413235    1.336746
C       1.032489   -0.463047    2.083169
C      -0.033145   -0.781952    1.340147
C       0.034914   -0.131206    0.001022
C      -0.058770   -0.767526   -1.343477
C       0.992515   -0.440541   -2.103241
C       2.002987    0.427768   -1.366600
H      -0.266653    1.884841    0.931437
H      -0.284157    1.894695   -0.901737
H       2.991266   -0.101499    1.206966
H       2.248644    1.339067    1.884089
H       1.184096   -0.760716    3.115575
H      -0.860177   -1.403111    1.665860
H      -0.891935   -1.385232   -1.659998
H       1.124349   -0.727078   -3.141494
H       2.212434    1.359454   -1.908057
H       2.967703   -0.088233   -1.260764
