16

C      -0.214709    1.481853    0.022721
C       0.021158   -0.024997   -0.040405
N       0.922449   -0.347933   -1.146870
C       0.779513   -0.539327    1.248380
O       2.088665   -0.043832    1.257658
C       0.087301   -0.103884    2.475365
N      -0.492149    0.243889    3.410934
C       0.778960   -2.029618    1.205693
N       0.789394   -3.178737    1.088268
H       0.733170    2.015660    0.130077
H      -0.705094    1.817177   -0.896241
H      -0.859179    1.744267    0.863773
H      -0.940514   -0.552029   -0.090382
H       0.823526   -1.312737   -1.445364
H       0.750129    0.250693   -1.945230
H       2.335373   -0.053649    0.311313
