13

O       0.186252    1.318625    0.342521
C       0.005130   -0.041001    0.058997
C      -1.455919   -0.430760   -0.174049
C      -1.379364   -1.482307   -1.267551
O      -2.187349   -2.271392   -1.634480
O      -0.123440   -1.398686   -1.878120
C       0.654088   -0.453885   -1.250672
N       1.729861    0.030907   -1.679815
H       1.038500    1.564840   -0.043643
H       0.433136   -0.673437    0.855158
H      -1.986964   -0.817030    0.695374
H      -2.007139    0.433689   -0.560810
H       1.999559   -0.346919   -2.587823
