23

C      -0.010647    1.494572    0.116241
C       1.393306    2.086715   -0.172422
C       2.490630    1.015015   -0.279153
C       2.400943    0.007811    0.879185
C       0.983763   -0.613646    1.053616
C      -0.032721   -0.043757    0.043961
C       0.214270   -0.569980   -1.390864
C       1.691591   -0.741540   -1.754672
O       2.485927    0.414429   -1.579343
H      -0.338721    1.792959    1.119056
H      -0.750433    1.905746   -0.578704
H       1.398326    2.652344   -1.108484
H       1.674225    2.790560    0.619706
H       3.464866    1.514748   -0.228933
H       3.158837   -0.769356    0.739663
H       2.685091    0.547704    1.788995
H       1.032067   -1.703796    0.957018
H       0.616295   -0.414660    2.066184
H      -1.034262   -0.372496    0.345520
H      -0.261495   -1.552563   -1.506845
H      -0.268628    0.099414   -2.112981
H       2.110724   -1.587508   -1.187105
H       1.787255   -0.999161   -2.814676
