19

C      -0.041681    1.465632    0.167758
C       1.296988    0.772957   -0.009819
C       2.258851    0.543437    1.152156
C       2.003156   -0.720912    1.938509
C       0.912924   -1.481926    1.845561
C      -0.243076   -1.112203    0.977494
O      -0.533964   -2.043935   -0.110580
C      -0.493737   -0.978417   -1.088410
C       0.018370   -0.009850   -0.033358
H      -0.308427    1.830161    1.156703
H      -0.397447    2.088505   -0.647032
H       1.773884    0.937949   -0.971804
H       3.283982    0.498298    0.763958
H       2.257095    1.403429    1.837972
H       2.792131   -1.006531    2.631272
H       0.815599   -2.384810    2.442738
H      -1.150703   -0.967899    1.584719
H       0.180889   -1.206455   -1.922943
H      -1.494334   -0.752953   -1.484154
