15

O       1.886247    4.213332    0.248534
C       1.064706    3.339316    0.181907
N       1.278055    1.981677    0.016486
C       2.469499    1.253905   -0.117177
N       3.627548    1.905129   -0.090067
C       4.744300    1.184804   -0.219731
C       4.768292   -0.195169   -0.380148
C       3.546438   -0.865866   -0.406846
C       2.375403   -0.139192   -0.274223
H      -0.027888    3.528118    0.249125
H       0.435468    1.427786   -0.012247
H       5.671633    1.752330   -0.192742
H       5.708304   -0.724355   -0.480319
H       3.506325   -1.943125   -0.529644
H       1.407927   -0.630916   -0.290879
