16

C       0.092956    1.495335    0.008520
C      -0.077838   -0.021301    0.002465
C      -1.534524   -0.460444    0.014049
O      -2.461751    0.321107    0.027413
C      -1.747148   -1.896237    0.008103
C      -1.915869   -3.091278    0.003215
C      -2.096528   -4.535488   -0.002432
O      -3.478825   -4.850880    0.009210
H       1.153444    1.761717    0.000096
H      -0.385323    1.945456   -0.864925
H      -0.369147    1.936586    0.895092
H       0.398152   -0.478759   -0.875562
H       0.414502   -0.487488    0.866797
H      -1.592668   -4.945153   -0.893701
H      -1.575687   -4.954268    0.874744
H      -3.556981   -5.810458    0.004187
