15

C      -0.042680    1.626195   -0.100732
C       0.010357    0.112692   -0.045977
O      -1.251966   -0.476337    0.219043
C       0.678318   -0.658283   -1.200796
N       2.060340   -0.186729   -1.253325
C       1.706381   -1.292981   -0.295595
C       1.064922   -0.607904    0.880533
O       1.098933   -0.749540    2.069229
H       0.916994    2.032368   -0.427677
H      -0.829305    1.948974   -0.789952
H      -0.270381    2.030114    0.891834
H      -1.434360   -0.355358    1.158652
H       0.169220   -1.111824   -2.040923
H       2.520166   -0.641052   -2.042176
H       2.202301   -2.253555   -0.351104
