15

C      -0.052758    1.461401   -0.002664
N      -0.013438    0.013375    0.002496
C      -0.035502   -0.802924   -1.071632
N       0.012789   -2.095136   -0.770540
C       0.069642   -2.118301    0.578692
O       0.129798   -3.238866    1.280129
C       0.056373   -0.823724    1.119410
C       0.106001   -0.524588    2.506624
O       0.166125   -1.420902    3.353749
H       0.848003    1.877321    0.459048
H      -0.108731    1.807658   -1.036109
H      -0.929647    1.829047    0.538977
H      -0.088322   -0.408603   -2.076815
H       0.161119   -2.953779    2.220836
H       0.089672    0.537996    2.819068
