19

C       0.576792    1.412408   -0.835557
C       0.234784    0.122122   -0.105209
C       0.623546    0.137359    1.369084
O      -1.203570   -0.034957   -0.233286
C      -1.697436   -1.285951   -0.160004
N      -1.004461   -2.326960    0.012377
N      -3.095560   -1.186577   -0.316572
C      -3.988402   -2.225860   -0.304243
O      -3.712628   -3.395277   -0.159700
H       1.656404    1.584877   -0.802046
H       0.267693    1.361506   -1.883049
H       0.078359    2.267897   -0.368521
H       0.698797   -0.737260   -0.596573
H       0.352061   -0.807131    1.844150
H       1.705120    0.273439    1.467716
H       0.124768    0.960447    1.891355
H      -1.601204   -3.151190    0.020257
H      -3.451470   -0.251430   -0.448030
H      -5.024765   -1.865675   -0.446251
