17

C      -0.586420    1.517353    0.061368
C      -0.098675    0.080764    0.043860
C       0.952308   -0.455619   -0.971838
C       1.706527   -0.984277    0.251024
C       2.111468    0.089085    1.199544
C       2.601896    1.429938    0.777762
O       3.374205    2.072562    1.449305
N       0.704088   -0.425738    1.224119
H       0.219309    2.253026    0.012845
H      -1.251742    1.695338   -0.790534
H      -1.156935    1.704447    0.976957
H      -0.975837   -0.573351    0.021921
H       0.563725   -1.245816   -1.616133
H       1.476622    0.269782   -1.598709
H       2.104284   -1.989230    0.354410
H       2.625215   -0.245445    2.096631
H       2.268866    1.804142   -0.209759
