16

C      -0.326610    1.563415   -0.061275
C       0.085282    0.084950    0.057438
C       0.776527   -0.428366   -1.169907
C       2.099314   -0.726790   -1.380803
O       2.287201   -1.142282   -2.652430
N       1.080277   -1.125944   -3.312403
C       0.196262   -0.705078   -2.440040
C       3.261612   -0.668925   -0.489081
O       4.390184   -0.957872   -0.805803
H       0.548738    2.203123   -0.206713
H      -0.998831    1.720223   -0.910356
H      -0.844161    1.890547    0.844968
H       0.730696   -0.046509    0.931146
H      -0.806809   -0.525105    0.242855
H      -0.838217   -0.615376   -2.741712
H       3.010358   -0.324911    0.536151
