17

O       0.477480    0.934340   -0.711313
C       0.040769   -0.274672   -0.157809
C       0.233032   -0.389452    1.396015
O       0.617832    0.834217    2.000778
C      -1.277036   -0.708840    1.569662
C      -1.490190   -0.507056    0.013120
C      -2.304772    0.787456    0.273976
C      -2.156742    0.536242    1.785649
O      -2.645597    1.029337    2.757790
H       0.589786    1.537006    0.038954
H       0.516587   -1.096645   -0.702752
H       0.888510   -1.207090    1.710884
H       1.565320    0.816402    2.165938
H      -1.531358   -1.598252    2.146700
H      -1.956850   -1.260170   -0.619182
H      -1.847741    1.706535   -0.103414
H      -3.347626    0.758275   -0.055354
