15

O      -0.214326   -0.052556    0.041411
C      -0.063085    1.140342   -0.024884
C       1.238345    1.891804    0.102647
C       1.507497    2.804047    1.300114
C       2.195362    1.912192    2.355641
C       2.270846    0.524003    1.744154
N       2.537076    1.171765    0.390316
C       2.956409    2.437800    1.178205
H      -0.929728    1.819988   -0.211676
H       1.363747    2.459694   -0.830098
H       1.072726    3.762556    1.553759
H       2.255891    2.229354    3.389378
H       3.176176   -0.007704    2.046923
H       1.412745   -0.147398    1.771727
H       3.867005    2.999871    1.030186
