24

C      -2.015589    3.030522   -1.089470
C      -1.274702    1.759158   -0.661666
C      -0.508743    2.011505    0.647014
C       0.347114    0.848050    1.147380
O       1.102378    1.192482    2.301186
N      -2.257087    0.688344   -0.458954
C      -2.978308    0.161518   -1.611616
C      -2.015642   -0.700441   -0.870826
C      -0.752410   -1.190235   -1.546881
H      -1.315093    3.862016   -1.210731
H      -2.537553    2.885847   -2.039713
H      -2.758334    3.309132   -0.335057
H      -0.546378    1.507821   -1.451916
H       0.148288    2.879015    0.513965
H      -1.241889    2.275524    1.421665
H      -0.279787   -0.035377    1.335454
H       1.087317    0.569547    0.388733
H       0.479158    1.394296    3.006430
H      -4.053877    0.049147   -1.496548
H      -2.664943    0.482755   -2.605597
H      -2.425831   -1.414511   -0.156947
H      -0.386913   -0.495853   -2.307577
H       0.052513   -1.361915   -0.825031
H      -0.956191   -2.144089   -2.045611
