22

C       0.160791    1.505366   -0.042184
C       0.040791   -0.005642    0.152940
O       0.531352   -0.394325    1.440104
C      -1.391925   -0.538400    0.008804
C      -1.563459   -2.091031    0.123789
O      -0.428414   -2.828448    0.479223
C      -2.612056   -1.794057    1.232236
N      -2.186126   -0.374893    1.254774
C      -3.217833    0.641254    1.319072
H       1.197642    1.819598    0.104345
H      -0.152911    1.798671   -1.049767
H      -0.458790    2.045862    0.681418
H       0.671442   -0.521236   -0.580725
H      -0.232238   -0.243031    2.026164
H      -1.880617   -0.121536   -0.883885
H      -1.981118   -2.567498   -0.765598
H       0.108203   -2.267444    1.063482
H      -3.649364   -1.927125    0.889661
H      -2.476308   -2.326185    2.179793
H      -3.736239    0.580032    2.281696
H      -2.775656    1.638724    1.240535
H      -3.972327    0.535625    0.518325
