23

C      -0.107984    1.441575   -0.249178
C       0.000161   -0.071264   -0.013129
C       0.861309   -0.398767    1.213814
C      -1.389095   -0.675706    0.139148
O      -2.235409   -0.481147   -1.028842
C      -2.633329   -1.867432   -1.032112
C      -1.821297   -2.718726   -2.032517
C      -0.787482   -3.030785   -0.903463
C      -1.630849   -2.202467    0.107852
H       0.878188    1.881687   -0.429289
H      -0.743946    1.652966   -1.112641
H      -0.543441    1.943685    0.623205
H       0.466898   -0.516434   -0.900925
H       0.966302   -1.479012    1.359595
H       1.865550    0.023890    1.109560
H       0.420028    0.020059    2.126100
H      -1.875437   -0.224186    1.019757
H      -3.719242   -1.988279   -0.983649
H      -2.351640   -3.603698   -2.395043
H      -1.453460   -2.148226   -2.888075
H      -0.745591   -4.090613   -0.642487
H       0.235138   -2.687780   -1.074127
H      -1.899163   -2.680942    1.048880
