15

N       0.060492    1.344778   -0.133369
C      -0.003447   -0.024260   -0.080913
C      -1.219403   -0.709011   -0.056400
C      -1.144906   -2.104956   -0.054907
N      -2.267126   -2.889904   -0.078361
N       0.025141   -2.766375   -0.068834
C       1.102297   -1.997590   -0.092612
O       2.274872   -2.655558   -0.106892
N       1.177177   -0.667179   -0.094860
H       0.960641    1.737749    0.092669
H      -0.737551    1.867216    0.187515
H      -2.168301   -0.186782   -0.057759
H      -3.135870   -2.492936    0.237562
H      -2.112448   -3.859802    0.148117
H       2.956735   -1.970869   -0.124657
