15

C       0.181463    1.470996    0.025742
C      -0.040256    0.004553   -0.009901
C      -1.136592   -0.810616    0.030489
C      -2.584101   -0.463966    0.131512
N      -0.714909   -2.129098   -0.039733
C       0.578139   -2.055964   -0.117169
O       1.068092   -0.791144   -0.105125
C       1.507465   -3.123235   -0.210329
N       2.269357   -3.990733   -0.286374
H       0.799916    1.758424    0.882878
H       0.690425    1.817930   -0.880024
H      -0.774345    1.992494    0.102618
H      -3.136102   -0.850488   -0.731075
H      -3.027542   -0.910001    1.027376
H      -2.733046    0.617226    0.177345
