17

O       0.191521    1.422922    0.177780
C       0.091920    0.028479    0.014134
C      -1.361326   -0.483629    0.020257
C      -2.115010   -0.091784   -1.253797
O      -2.102541    1.328185   -1.374136
C      -1.413867   -2.022113    0.163611
C      -0.913294   -2.496685    1.451518
N      -0.519979   -2.867497    2.472753
H      -0.423993    1.818014   -0.453388
H       0.580927   -0.314331   -0.917573
H       0.640551   -0.423358    0.847516
H      -1.871203   -0.028733    0.877194
H      -1.627998   -0.560680   -2.124185
H      -3.149945   -0.464263   -1.210196
H      -2.455486    1.571204   -2.234975
H      -2.443175   -2.380660    0.046198
H      -0.824566   -2.496518   -0.631519
