17

O       0.948001   -0.097304   -1.080794
C       0.035756   -0.026591   -0.017386
C      -1.234428   -0.787374   -0.358654
O      -1.357046   -1.368562   -1.411038
C       0.633849   -0.598139    1.262531
C       1.246832    0.303415    2.307770
O       1.121056    1.683961    2.073660
C      -0.047405   -0.411368    2.609970
O      -1.204273    0.368788    2.690090
H       0.508239   -0.639764   -1.755548
H      -0.257280    1.018719    0.162915
H      -2.026183   -0.776227    0.412903
H       1.143545   -1.543596    1.102089
H       2.179010   -0.002521    2.775811
H       1.364323    2.145539    2.883372
H      -0.064068   -1.243197    3.307599
H      -0.916881    1.285666    2.569784
