15

C       0.062864   -1.190258    0.001408
C      -0.016590    0.012344    0.025605
C      -0.046585    1.426949    0.059056
C      -1.138840    2.206559    0.058851
C      -0.796800    3.673014    0.046504
C       0.717825    3.686724    0.378316
C       1.226645    2.262943    0.046229
H       0.114633   -2.250308   -0.022099
H      -2.155811    1.833311    0.029680
H      -1.004902    4.105507   -0.943334
H      -1.390434    4.254341    0.761131
H       1.262262    4.464962   -0.161807
H       0.851799    3.879915    1.447113
H       1.969693    1.898290    0.762078
H       1.696647    2.210359   -0.944732
