20

C       0.246043    1.012355   -0.429506
O      -0.130064    0.161789    0.631547
C      -1.262756   -0.588435    0.364559
C      -1.518795   -1.610302   -0.729637
C      -0.393740   -2.640033   -0.990788
N       0.818571   -2.260703   -0.224837
C      -0.309143   -2.971536    0.440325
C      -1.482317   -2.000525    0.781677
C      -2.590424   -2.456735    1.687278
H       1.102142    1.595556   -0.082055
H       0.540009    0.434572   -1.315514
H      -0.564301    1.704295   -0.708843
H      -2.181993   -0.004608    0.504699
H      -2.385805   -1.525342   -1.374950
H      -0.341226   -3.280551   -1.861622
H       1.518395   -2.978382   -0.422222
H      -0.161085   -3.925263    0.930880
H      -2.255361   -2.492675    2.731597
H      -3.447104   -1.777776    1.635023
H      -2.940849   -3.460283    1.417620
