20

O       0.009874    1.198811   -0.108360
C       0.041760   -0.210444   -0.289548
C      -1.328727   -0.742609    0.101482
C      -2.454865   -0.367843   -0.906772
C      -2.309773   -1.773988   -1.556622
C      -1.563320   -2.230511   -0.288475
O      -0.417504   -3.038416   -0.517629
C      -0.122023   -3.997494    0.380356
N       0.954075   -4.649307    0.281616
H       0.865630    1.551729   -0.368514
H       0.270600   -0.473902   -1.333363
H       0.814429   -0.680435    0.336726
H      -1.516820   -0.489818    1.148711
H      -3.422672   -0.229305   -0.419374
H      -2.254730    0.499000   -1.537690
H      -3.215906   -2.319009   -1.829037
H      -1.633609   -1.765237   -2.414622
H      -2.231037   -2.729040    0.424355
H      -0.899630   -4.131411    1.146300
H       1.005172   -5.346136    1.021735
