21

O      -0.120485    1.413175   -0.165352
C       0.011464    0.010586   -0.004821
C      -1.389728   -0.591871   -0.154419
C      -1.392994   -2.042386   -0.011104
C      -1.364605   -3.240641    0.108949
C      -1.371754   -4.694506    0.259009
C      -2.768282   -5.297054    0.189876
C      -3.380910   -5.635435   -1.141929
C      -2.943055   -6.739310   -0.208111
H       0.750188    1.810472   -0.074506
H       0.679067   -0.425562   -0.762887
H       0.417284   -0.250268    0.984024
H      -2.044726   -0.128773    0.593919
H      -1.786923   -0.299737   -1.134367
H      -0.747340   -5.149624   -0.522023
H      -0.902130   -4.966953    1.214212
H      -3.446863   -4.917136    0.947806
H      -4.442854   -5.466888   -1.280986
H      -2.784718   -5.457855   -2.031126
H      -2.054901   -7.304428   -0.473143
H      -3.704605   -7.325206    0.294547
