24

C       0.015628    1.442741   -0.321547
C       0.185392   -0.031157   -0.036878
N       1.561708   -0.560072    0.079390
C       0.666905   -0.611586    1.251146
C       1.086299    0.285734    2.401122
C       0.104821   -1.992063    1.658931
C       1.093914   -2.755883    2.554761
C      -1.262490   -1.849333    2.343994
O      -0.058605   -2.724475    0.434443
H       0.777507    2.047920    0.173547
H       0.098756    1.628903   -1.398066
H      -0.971199    1.793980    0.001219
H      -0.509549   -0.667039   -0.579961
H       1.585555   -1.482707   -0.349259
H       1.484446    1.226919    2.021482
H       0.249211    0.516223    3.068511
H       1.877905   -0.178152    2.997236
H       1.208834   -2.286177    3.534823
H       0.732527   -3.777265    2.724029
H       2.076572   -2.814956    2.078428
H      -1.969114   -1.349163    1.676704
H      -1.667029   -2.836767    2.597179
H      -1.193898   -1.276770    3.272988
H      -0.372548   -3.605259    0.660088
