18

C       0.090507    1.417330    0.057230
N      -0.007864   -0.030333    0.046222
C      -1.138754   -0.612849    0.045551
C      -2.494931    0.060970    0.055307
N      -1.114466   -2.022352    0.034403
C       0.190105   -2.685795    0.024568
C      -2.246445   -2.810930    0.032688
O      -2.244171   -4.022119    0.023522
H       1.147660    1.695078    0.055267
H      -0.372077    1.882153   -0.824551
H      -0.365104    1.868136    0.949849
H      -3.083879   -0.204003   -0.828094
H      -3.078236   -0.217835    0.938171
H      -2.370897    1.142620    0.063372
H       0.763776   -2.397816    0.907683
H       0.005774   -3.758074    0.016084
H       0.758012   -2.382682   -0.857177
H      -3.180389   -2.231341    0.040523
