20

C      -0.031121    1.646803    0.266241
C       0.026094    0.125378    0.114315
C      -1.352525   -0.537200   -0.142767
C      -1.965439   -0.138304   -1.455658
C      -2.310097   -0.999735   -2.406230
C      -2.150276   -2.480697   -2.271466
N      -1.602160   -2.856619   -0.982775
C      -1.218234   -2.049683    0.047847
O      -0.777487   -2.517527    1.084075
H       0.959551    2.046152    0.504285
H      -0.370512    2.143996   -0.648261
H      -0.709060    1.938379    1.076435
H       0.705664   -0.143125   -0.704202
H       0.428577   -0.327098    1.024597
H      -2.011928   -0.206621    0.674044
H      -2.122836    0.924887   -1.616880
H      -2.739913   -0.656966   -3.342677
H      -3.126651   -2.969280   -2.417470
H      -1.505064   -2.858099   -3.081094
H      -1.484688   -3.840212   -0.785654
