14

N      -0.004490    1.387563    0.132057
C       0.006795    0.014304    0.039270
C      -1.170345   -0.748399    0.021755
N      -1.174893   -2.074450   -0.011039
C       0.021603   -2.673046   -0.028309
N       1.204360   -2.071760   -0.025545
C       1.207412   -0.730852    0.005029
C       2.458930   -0.044360   -0.003567
C       3.479150    0.596465   -0.017149
H       0.852061    1.854100   -0.128199
H      -0.841275    1.856386   -0.178584
H      -2.138455   -0.248510    0.036262
H       0.025048   -3.758860   -0.050722
H       4.399435    1.127341   -0.021535
