21

C      -0.096385    1.364557    0.018747
O       0.148741   -0.029393    0.030193
C       0.701511   -0.536468   -1.133253
C      -0.002882   -0.529603   -2.537616
C       1.037802   -1.649762   -2.763014
O       2.299735   -0.950111   -2.712719
C       2.124216   -0.104871   -1.558927
C       0.802636   -2.086455   -1.291577
C       1.845022   -2.902775   -0.547589
H       0.832283    1.949340   -0.036567
H      -0.742921    1.654279   -0.821491
H      -0.605004    1.604485    0.954950
H      -1.031493   -0.889822   -2.489835
H       0.084477    0.357177   -3.168955
H       1.028900   -2.329998   -3.611725
H       2.196695    0.949250   -1.850011
H       2.883153   -0.318772   -0.798271
H      -0.197106   -2.513037   -1.172839
H       2.859141   -2.614402   -0.835025
H       1.740191   -2.776958    0.535242
H       1.729417   -3.968677   -0.769937
