12

O       0.109048    1.322118    0.081338
C       0.069962   -0.016290    0.036990
N       0.078802   -0.616697   -1.139141
C       0.038056   -1.960390   -1.120118
C      -0.010740   -2.681802    0.070248
N      -0.019083   -2.057960    1.255022
C       0.020681   -0.736735    1.248563
C       0.046375   -2.645815   -2.382883
N       0.051773   -3.227767   -3.382387
H       0.139398    1.637912   -0.833520
H      -0.043167   -3.765609    0.067940
H       0.014728   -0.211386    2.198688
