21

C       0.026274    1.591400    0.233679
C       0.026393    0.064125    0.029683
C       0.468784   -0.641973    1.325789
C      -1.398740   -0.395497   -0.332780
C       0.948905   -0.327767   -1.145554
C       2.416848    0.009986   -1.049128
O       2.980969    0.568964   -0.135263
C       3.289734   -0.404802   -2.249284
O       2.870271   -0.966287   -3.225952
H       1.016761    1.955934    0.512641
H      -0.288664    2.111040   -0.678776
H      -0.675027    1.867648    1.028240
H      -0.224359   -0.407566    2.140689
H       0.472730   -1.730974    1.199891
H       1.469088   -0.327187    1.629219
H      -1.752583    0.086686   -1.250878
H      -1.442183   -1.479731   -0.484953
H      -2.100106   -0.142353    0.469158
H       0.893414   -1.409324   -1.337375
H       0.590846    0.119273   -2.084496
H       4.356098   -0.125319   -2.109937
