18

O       0.154898    1.423888    0.097649
C       0.014917    0.037707    0.019938
C      -1.398559   -0.629611   -0.114119
C      -1.917228    0.024882   -1.393932
C      -1.810670   -0.917533   -2.538865
C      -1.485211   -2.295221   -2.002501
C      -0.662426   -1.831333   -0.809729
C       0.257194   -0.686740   -1.324745
N      -0.685537    0.021974   -2.257300
H      -0.132267    1.781592   -0.751608
H       0.592716   -0.397474    0.839537
H      -2.080013   -0.750193    0.726369
H      -2.535264    0.914903   -1.397571
H      -2.335978   -0.761070   -3.474275
H      -2.385164   -2.850660   -1.718544
H      -0.905440   -2.900852   -2.707272
H      -0.213885   -2.574506   -0.154900
H       1.243962   -0.840328   -1.759674
