16

C      -0.256229    1.650643    0.256471
C      -0.112900    0.151821    0.132348
C      -1.278991   -0.586464   -0.507765
C      -1.429308   -0.226679   -1.978450
O      -2.462764    0.115931   -2.488515
O       1.177467   -0.320702   -0.285238
C       0.769848   -0.608259    1.053764
C       1.505853    0.046403    2.113517
N       2.078124    0.554033    2.979918
H      -1.128710    1.899549    0.868461
H       0.630393    2.094923    0.711430
H      -0.401975    2.098741   -0.731644
H      -1.092792   -1.666651   -0.456172
H      -2.218707   -0.367330    0.006553
H      -0.490687   -0.317350   -2.567857
H       0.543181   -1.653839    1.256019
