18

C      -0.035685    1.536707    0.003912
C       0.010657    0.026971    0.048751
C      -1.159328   -0.667372    0.052708
N      -1.373976   -2.011305   -0.032478
C      -0.421491   -2.906837   -0.672418
C       0.861700   -3.023492    0.109796
C       1.600114   -1.979400    0.486879
C       1.359939   -0.532327    0.217193
O       2.335745    0.213821    0.242565
H       0.466190    1.916858   -0.892348
H      -1.066118    1.904213   -0.000655
H       0.494859    1.973679    0.855728
H      -2.082665   -0.097897    0.139682
H      -2.338043   -2.293478   -0.085814
H      -0.898597   -3.885523   -0.759817
H      -0.203562   -2.553277   -1.694895
H       1.204205   -4.027592    0.345004
H       2.544148   -2.145722    0.998415
