19

C       0.012979    1.493846   -0.423367
C       1.474258    1.562047    0.110906
C       1.686298    2.144684    1.527012
O       2.173701    1.085702    2.344723
C       1.611033   -0.143614    1.869554
C       0.186658   -0.356598    2.344065
C      -0.703904   -0.256729    1.356164
C      -0.065628   -0.008761    0.015424
C       1.456798    0.022450    0.341119
H      -0.706692    2.173550    0.042398
H      -0.043664    1.615501   -1.507854
H       2.209654    1.940849   -0.600308
H       2.435119    2.941384    1.557639
H       0.743197    2.547230    1.925636
H       2.299038   -0.930029    2.194393
H      -0.047510   -0.505286    3.392465
H      -1.781256   -0.311289    1.481559
H      -0.410531   -0.697265   -0.760254
H       2.126041   -0.587087   -0.263818
