22

C      -0.051595    1.562285   -0.320736
C       0.002371    0.043921   -0.105072
C       0.625390   -0.652500   -1.323770
C       0.760313   -0.357120    1.175796
C       0.046965   -0.063922    2.500337
C       0.709678   -0.609985    3.787214
O       0.785219    0.740554    4.336699
C       0.221669    1.278947    3.199865
N      -0.039793    2.473849    2.922095
H       0.958056    1.962423   -0.475542
H      -0.640778    1.801316   -1.212657
H      -0.481044    2.089259    0.533988
H      -1.029169   -0.324772   -0.001448
H       1.669149   -0.343798   -1.458604
H       0.610707   -1.742980   -1.220134
H       0.085623   -0.394328   -2.240526
H       0.932196   -1.441739    1.147052
H       1.754772    0.109067    1.180596
H      -1.010625   -0.337235    2.426547
H       0.101152   -1.258552    4.421931
H       1.709761   -1.033122    3.656932
H       0.230252    3.100768    3.681866
