21

C      -0.019370    1.541077   -0.080663
C       0.040724    0.024410    0.019159
O       0.644007   -0.463248   -1.181691
C       0.864210   -1.843984   -1.111150
O       1.901623   -2.176359   -0.224900
C       1.703241   -1.683379    1.084175
C       1.751127   -2.782949    2.114256
C       2.298041   -0.324568    1.355998
C       0.794726   -0.484595    1.237816
H       0.988482    1.962627   -0.123706
H      -0.560339    1.839400   -0.982968
H      -0.534065    1.958954    0.789882
H      -0.987443   -0.375683    0.070814
H      -0.071610   -2.356237   -0.819986
H       1.184192   -2.177153   -2.100528
H       2.702050   -3.321781    2.047768
H       1.656936   -2.375733    3.125325
H       0.942348   -3.504450    1.956308
H       2.717425   -0.117595    2.334689
H       2.818511    0.133056    0.522108
H       0.226274   -0.429817    2.162315
