16

C      -0.050628    1.535302   -0.021342
C      -0.013634    0.034227   -0.009184
C      -0.014329   -0.704648   -1.132979
O       0.008389   -2.039313   -1.155113
C       0.032760   -2.768229    0.079751
N       0.047844   -4.033307    0.020517
N       0.043986   -2.054240    1.240841
C       0.016188   -0.751571    1.217488
N      -0.016715   -0.099436    2.409648
H       0.839636    1.974107    0.448179
H      -0.092006    1.912272   -1.046930
H      -0.927732    1.925406    0.509197
H      -0.034978   -0.278921   -2.132097
H       0.038573   -4.337835   -0.951323
H       0.128189   -0.661063    3.233676
H       0.190857    0.881442    2.463549
