16

O      -0.074423    0.009965    0.157265
C      -0.071555    1.207908    0.033628
C      -1.287413    2.076782   -0.186856
N      -1.336201    3.159381    0.832970
C      -0.828155    3.463610   -0.506765
C       0.703335    3.494459   -0.538471
O       1.312258    4.159064    0.584166
C       1.660257    2.897688    1.197461
C       1.163784    2.106666   -0.045487
H      -2.204984    1.634499   -0.557208
H      -2.297636    3.480634    0.917858
H      -1.404746    4.109877   -1.159949
H       1.081826    3.867058   -1.495766
H       2.736688    2.822589    1.383462
H       1.103900    2.722460    2.122423
H       1.955833    1.606083   -0.601868
