18

C      -0.029669    1.532316   -0.016337
C       1.531774    1.528116    0.007726
C       1.420288    0.101450    0.632916
C      -0.007751   -0.028852    0.014514
C      -0.012842   -0.654890   -1.353687
C       0.785141   -0.311278   -2.378541
C       1.812639    0.727947   -2.383090
C       2.151683    1.534275   -1.363259
H      -0.426854    1.929118    0.920884
H      -0.521381    2.014839   -0.862762
H       1.999941    2.287877    0.636630
H       2.167454   -0.638627    0.341240
H       1.362628    0.163230    1.722160
H      -0.759445   -0.502754    0.648793
H      -0.730014   -1.455319   -1.515857
H       0.668218   -0.854013   -3.313402
H       2.349881    0.846909   -3.320863
H       2.943154    2.259794   -1.532133
