18

C      -0.020478    1.553142   -0.005305
C       0.115548    0.049542    0.113009
C       1.370018   -0.735668   -0.175652
C       2.616340   -0.023002    0.289715
C       3.279330   -0.793870    1.414139
C       2.049942    0.029897    1.707087
O       2.092775    1.133673    2.548127
C       0.789059   -0.671182    1.257294
H       0.857937    2.073982    0.379568
H      -0.165141    1.848261   -1.050873
H      -0.887578    1.906304    0.563446
H      -0.771539   -0.488248   -0.221613
H       1.363709   -1.605596   -0.823487
H       3.139387    0.766873   -0.236335
H       3.249923   -1.880517    1.429709
H       4.203537   -0.355843    1.780430
H       2.195118    0.821180    3.453380
H       0.293822   -1.470709    1.798912
