21

C      -0.344902    1.450688    0.021148
C       0.007057   -0.025381    0.001189
O       0.702119   -0.274946   -1.197574
C       0.765280   -1.626405   -1.615869
C       1.717754   -2.504600   -0.825765
C       2.915298   -1.928110   -0.109194
C       1.769701   -2.512672    0.681900
C       0.874200   -1.643295    1.545017
O       0.782895   -0.287467    1.146536
H       0.574499    2.040982   -0.008034
H      -0.955063    1.703724   -0.848483
H      -0.892664    1.694517    0.933876
H      -0.898913   -0.660240    0.029015
H      -0.245779   -2.068640   -1.606655
H       1.092993   -1.589335   -2.660856
H       1.858895   -3.472866   -1.301659
H       3.855420   -2.467070   -0.144479
H       3.001012   -0.847824   -0.106353
H       1.942883   -3.485913    1.136589
H      -0.135264   -2.085771    1.600689
H       1.273071   -1.617281    2.565309
