19

O       0.056207    1.428058   -0.139460
C       0.095495    0.014699   -0.075973
C      -1.295822   -0.563836   -0.079166
O      -2.062988   -0.089646    1.070424
C      -2.353573   -1.456793    1.482743
C      -1.720275   -2.034698    0.209536
C      -2.656314   -1.998839   -1.028431
C      -2.211578   -0.524584   -1.338683
O      -3.188859    0.473212   -1.339524
H      -0.513048    1.718174    0.583070
H       0.648219   -0.328557   -0.957603
H       0.637190   -0.337335    0.817620
H      -1.825588   -1.699713    2.412350
H      -3.427983   -1.622524    1.622833
H      -1.021758   -2.863224    0.314791
H      -2.386522   -2.712467   -1.810235
H      -3.722235   -2.107250   -0.809506
H      -1.647835   -0.442156   -2.272844
H      -3.376796    0.649395   -0.406091
