16

O       0.051780    1.431606   -0.043392
C      -0.026374    0.040549    0.016203
C       0.214074   -0.737452    1.303046
C      -0.766174   -1.773767    0.897164
N      -1.080160   -0.907122    2.057799
C      -2.114821   -0.186044    1.236230
C      -1.429981   -0.681786   -0.040025
C      -2.130049   -0.866048   -1.336446
O      -3.238533   -0.448441   -1.568675
H      -0.356741    1.804417    0.744405
H       0.616902   -0.342758   -0.781109
H       1.124660   -0.836514    1.879024
H      -0.748841   -2.854582    0.903320
H      -3.085268   -0.654600    1.406688
H      -2.198027    0.893710    1.407851
H      -1.552078   -1.425888   -2.107241
