21

C       0.881574    1.513412   -0.189387
C       0.142998    0.174324   -0.011833
C       0.417887   -0.773664   -1.157139
C       1.160738   -1.819916   -0.798191
C       1.536600   -1.779366    0.668283
C       3.009381   -1.430448    0.830682
O       3.802189   -2.084976    1.457255
C       0.558177   -0.687295    1.225843
C       1.041613    0.068578    2.464462
H       1.965920    1.373674   -0.247880
H       0.564520    2.001362   -1.117004
H       0.669444    2.200224    0.635728
H      -0.928545    0.405492    0.052591
H       0.064779   -0.579819   -2.165081
H       1.507965   -2.604891   -1.460755
H       1.394948   -2.736947    1.179981
H       3.325654   -0.502667    0.299576
H      -0.338698   -1.248551    1.511679
H       1.937078    0.666426    2.270424
H       0.265372    0.747562    2.832506
H       1.281833   -0.629174    3.273042
