17

C      -0.081838    1.508395    0.006721
C       0.078815    0.012319   -0.008687
N      -0.498669   -0.827225    1.054449
C       0.984220   -0.750708    0.888139
C       1.465612   -1.970369    0.124402
O       2.156770   -2.856012    0.543896
N       1.006156   -1.882265   -1.235379
C      -0.444512   -2.081029   -1.482651
C       0.118044   -0.714064   -1.349349
H       0.653472    1.988596   -0.647252
H      -1.079475    1.799716   -0.340276
H       0.055411    1.907087    1.016745
H      -0.759465   -0.240564    1.845120
H       1.592785   -0.323541    1.677003
H      -0.674791   -2.476022   -2.467800
H      -1.044458   -2.458871   -0.663172
H       0.267726   -0.097921   -2.232039
