18

C       0.972751    0.995450    0.755041
C      -0.100354    0.353971   -0.118629
N       0.517934   -0.408994   -1.209851
C       1.082262   -1.743079   -0.982173
C       1.001148   -2.454105    0.324446
O       1.878271   -3.184746    0.717322
C      -0.181406   -1.535674   -1.806453
C      -1.464841   -1.984581   -1.332973
C      -2.560822   -2.339897   -0.987614
H       1.571059    0.239422    1.274376
H       1.650057    1.604653    0.150321
H       0.510918    1.635104    1.512655
H      -0.793226   -0.241273    0.490104
H      -0.702939    1.130627   -0.602692
H       2.007954   -1.943027   -1.516855
H       0.083391   -2.280971    0.920678
H      -0.056521   -1.609779   -2.885353
H      -3.523711   -2.664461   -0.677654
