16

N      -0.102426   -1.187568   -0.299722
C      -0.067337   -0.045918   -0.124098
C      -0.004367    1.414149    0.084081
N      -0.568989    1.773640    1.401790
C       0.566322    2.050559    2.310755
C       1.786486    2.378160    1.440319
C       2.496872    1.209467    0.810502
C       1.441562    1.951894    0.033345
H      -0.605328    1.871194   -0.708235
H      -1.105387    2.624431    1.281009
H       0.306116    2.873224    2.981580
H       0.756221    1.169819    2.935419
H       2.333885    3.294848    1.626647
H       3.527371    1.339788    0.498432
H       2.262751    0.210350    1.167195
H       1.728078    2.532385   -0.834780
