23

C       0.060703    1.560324    0.190852
C       0.002722    0.045520   -0.023280
C      -1.417888   -0.520790    0.069002
C      -1.470754   -2.046248   -0.145810
C      -2.853660   -2.619750   -0.088846
C      -3.551459   -3.210111   -1.056404
C      -4.894728   -3.643721   -0.547143
O      -4.919888   -3.246932    0.822428
C      -3.692977   -2.614853    1.167553
H       1.086164    1.935267    0.115562
H      -0.542747    2.089110   -0.555251
H      -0.322605    1.835818    1.179644
H       0.427388   -0.203104   -1.005020
H       0.640520   -0.455184    0.717322
H      -1.844114   -0.270224    1.049072
H      -2.058990   -0.032384   -0.676230
H      -1.018310   -2.290540   -1.114002
H      -0.844797   -2.528127    0.619614
H      -3.221874   -3.377996   -2.074677
H      -5.728891   -3.167602   -1.087831
H      -5.044425   -4.733142   -0.623685
H      -3.202602   -3.163839    1.989394
H      -3.892600   -1.597038    1.539079
