17

C      -0.197233    1.594142    0.470764
C      -0.172938    0.095661    0.306844
N       0.892698   -0.501672   -0.483252
C       0.876348   -0.792188    0.959218
C       2.005770   -0.252428    1.809211
C       0.328761   -2.137954    1.304350
O      -0.276302   -2.842808    0.526189
C       0.542775   -2.602382    2.689152
N       0.699681   -2.970272    3.774102
H       0.808982    2.015479    0.490728
H      -0.728832    2.044207   -0.374478
H      -0.722064    1.879724    1.387846
H      -1.153581   -0.370383    0.222186
H       0.537442   -1.319940   -0.978471
H       2.325641    0.720850    1.437774
H       1.703617   -0.145503    2.855033
H       2.872259   -0.920419    1.773167
