20

C      -0.050043    1.551598    0.035710
C       0.017868    0.023130   -0.017748
C       0.731109   -0.496806   -1.270021
C       0.799592   -2.023455   -1.324558
C       1.499206   -2.569615   -2.551459
O       1.967359   -1.863180   -3.420344
C       1.617957   -4.084450   -2.696301
O       2.283898   -4.431369   -3.872732
H       0.953108    1.991810    0.032938
H      -0.588435    1.953485   -0.829579
H      -0.563572    1.897019    0.938158
H       0.531491   -0.353150    0.877277
H      -0.998630   -0.391175    0.021515
H       0.224103   -0.128256   -2.169260
H       1.748015   -0.090344   -1.317112
H       1.312939   -2.426290   -0.439433
H      -0.207286   -2.464161   -1.289568
H       2.141472   -4.476068   -1.807908
H       0.602711   -4.514650   -2.667618
H       2.498693   -3.583164   -4.294448
