15

O       0.002552    0.084664    0.543737
C      -0.015323    1.170702    0.054540
O      -1.170206    1.817584   -0.228635
C      -1.090920    3.112220   -0.812553
C      -0.063282    3.311864   -1.958188
C      -0.075357    4.818160   -1.588520
C      -0.050772    4.097103   -0.215495
C       0.995985    3.135163   -0.837872
O       1.117851    1.842739   -0.256394
H      -2.116731    3.450274   -0.957513
H      -0.070209    2.852714   -2.945152
H       0.818036    5.387839   -1.851624
H      -0.987176    5.367992   -1.829723
H      -0.043452    4.532252    0.782281
H       2.010299    3.495646   -1.007583
