16

O      -0.089411    1.369230   -0.111375
C       0.001102   -0.013917   -0.009131
C      -1.369240   -0.729166   -0.036322
C      -0.907070   -1.571983    1.174312
O      -1.401770   -2.466589    1.794714
C       0.430470   -0.798747    1.273857
N       1.651540   -1.384551    0.565621
C       1.205374   -2.166755   -0.608138
C       1.195958   -0.695481   -0.714123
H       0.782722    1.749184    0.044932
H      -2.163381   -0.033027    0.255055
H      -1.676444   -1.268738   -0.935683
H       0.703095   -0.345890    2.227670
H       2.032892   -2.688792   -1.080510
H       0.286706   -2.744261   -0.573122
H       1.898092   -0.151415   -1.341377
