23

C       0.096955    1.619984    0.034014
C       0.147509    0.090247    0.045869
C       0.573910   -0.508227   -1.303808
C       0.605778   -2.011612   -1.301744
C       1.777831   -2.818171   -0.816974
C       1.331945   -2.982572   -2.246765
C       0.099221   -3.870168   -2.312938
O       0.339558   -5.207060   -1.924601
C      -0.638528   -2.915741   -1.308112
H       1.077020    2.046782   -0.207489
H      -0.614614    1.987476   -0.714071
H      -0.208339    2.018016    1.006823
H       0.841333   -0.253471    0.823173
H      -0.837781   -0.307695    0.321298
H      -0.112862   -0.155004   -2.086664
H       1.567322   -0.124153   -1.572737
H       2.703669   -2.263923   -0.694783
H       1.646880   -3.633877   -0.111505
H       1.992409   -2.767681   -3.078794
H      -0.372199   -3.829610   -3.304254
H      -0.498566   -5.680037   -1.945166
H      -0.911835   -3.365105   -0.347634
H      -1.522132   -2.444439   -1.748131
