13

O      -0.078841   -0.197576    0.003033
C      -0.062801    0.999504    0.005447
C       1.170303    1.897616    0.001021
C       2.419464    1.147227   -0.014085
N       3.425300    0.582028   -0.026126
O      -1.168050    1.778217    0.013714
C      -2.403596    1.046375    0.019832
C      -3.497067    2.014217    0.030358
N      -4.384623    2.751840    0.038818
H       1.117420    2.560481   -0.869637
H       1.131735    2.548446    0.881535
H      -2.468693    0.406451   -0.865554
H      -2.456578    0.400638    0.901810
