17

O       0.123988    1.310901    0.001413
C       0.066990   -0.071324    0.157296
C      -0.719540   -0.647299    1.329755
C      -1.270479   -0.687662   -0.071691
N      -2.444528    0.013665   -0.580690
C      -2.981516   -1.233619   -1.173374
C      -1.626811   -1.957321   -0.874347
C      -0.781537   -2.249538   -2.020813
N      -0.099378   -2.488739   -2.923095
H       0.779284    1.653641    0.618406
H       0.940380   -0.626594   -0.187027
H      -0.381040   -1.567355    1.797396
H      -1.164399    0.077407    2.005675
H      -3.030167    0.449097    0.122006
H      -3.815625   -1.692089   -0.630321
H      -3.246381   -1.141284   -2.229578
H      -1.727476   -2.858635   -0.265887
