13

C       0.035405    1.454112   -0.016311
C      -0.045524   -0.023242    0.009351
N      -1.089617   -0.745929   -0.176734
N      -0.617579   -2.045633   -0.047169
C      -1.426764   -3.182366   -0.175142
O      -2.600383   -3.149422   -0.408003
C       0.749058   -2.070827    0.223583
O       1.491164   -2.988398    0.395964
O       1.101044   -0.729931    0.255463
H       0.737916    1.784977   -0.787614
H      -0.953456    1.863245   -0.223928
H       0.394588    1.833574    0.945311
H      -0.819851   -4.090499   -0.029942
