27

C       0.095136    1.619858   -0.044578
C      -0.065294    0.097185    0.000632
C       0.618836   -0.527983    1.224059
C       0.731614   -2.072311    1.215280
C      -0.648923   -2.717857    1.051605
O       1.472415   -2.498375    0.061038
C       1.431170   -2.579217    2.520990
C       1.478412   -4.114253    2.598404
C       2.856366   -2.024213    2.694066
H       1.151458    1.908075   -0.094602
H      -0.407110    2.047147   -0.918240
H      -0.331401    2.092499    0.847628
H      -1.133278   -0.147585   -0.002098
H       0.356365   -0.350890   -0.906175
H       1.630526   -0.107991    1.293858
H       0.102331   -0.212989    2.140647
H      -1.146193   -2.339003    0.157060
H      -0.558679   -3.799331    0.940586
H      -1.282876   -2.506254    1.918512
H       2.312960   -2.028757    0.059580
H       0.827296   -2.209034    3.361142
H       1.927958   -4.525785    1.689383
H       2.082489   -4.435207    3.452961
H       0.486490   -4.556465    2.716582
H       3.512806   -2.350593    1.877863
H       2.890041   -0.933177    2.744439
H       3.295917   -2.404755    3.621112
