16

C      -0.021047    1.524727    0.008761
C      -0.002468    0.018372    0.006196
C      -0.014524   -0.710199   -1.179921
C       0.022590   -2.111018   -1.139013
N       0.068412   -2.807001    0.010319
C       0.077219   -2.101439    1.140836
C       0.042927   -0.711877    1.196341
C       0.010038   -2.855967   -2.361227
C      -0.001232   -3.450773   -3.407290
H       0.970449    1.925714    0.249698
H      -0.312618    1.923241   -0.966084
H      -0.715893    1.910618    0.760983
H      -0.054032   -0.207573   -2.139956
H       0.111481   -2.681671    2.060255
H       0.049576   -0.206391    2.156738
H      -0.010551   -3.991488   -4.321221
