17

O      -0.048966    1.385084    0.041919
C       0.023817    0.006142    0.039555
C      -0.134208   -0.815258   -1.232466
C       0.702505   -2.077274   -1.406758
C       0.856398   -2.557691    0.034467
O       1.789761   -1.668406    0.718447
C       0.674577   -0.863371    1.144081
C      -0.366140   -1.953057    0.824005
C      -1.128854   -0.981362   -0.104337
H       0.723324    1.731472   -0.419401
H      -0.449262   -0.235361   -2.093988
H       0.164111   -2.809896   -2.021246
H       1.685298   -1.902888   -1.854507
H       1.131637   -3.606130    0.164454
H       0.805990   -0.383472    2.116158
H      -0.870428   -2.541400    1.585091
H      -2.195807   -0.821421   -0.174926
