18

N       0.061995    1.126739    0.904991
C      -0.010912    0.071079    0.234641
C      -1.129530   -0.868737   -0.162565
C      -0.004553   -1.656344   -0.868545
C      -0.041898   -1.761839   -2.378725
C       1.301785   -2.245947   -2.961551
C       1.280684   -2.347453   -4.414815
C       1.234768   -2.422924   -5.613389
O       0.972862   -0.653736   -0.410659
H       1.022652    1.470485    0.953416
H      -1.622570   -1.371247    0.670678
H      -1.881674   -0.430602   -0.821647
H       0.232523   -2.620183   -0.405411
H      -0.841284   -2.456153   -2.663149
H      -0.295151   -0.785752   -2.806756
H       2.091746   -1.554096   -2.646458
H       1.558115   -3.222285   -2.529100
H       1.209491   -2.492492   -6.672527
