14

O      -0.061810    1.343556   -0.058253
C       0.038906   -0.014571   -0.044335
C       0.349045   -1.007885    1.143591
O      -1.019920   -1.019000    1.626148
C      -1.159381   -0.985196    0.177422
C       0.055403   -1.932626   -0.073700
C       0.723770   -0.966364   -1.084679
C       0.218833   -0.954196   -2.446203
N      -0.194229   -0.938237   -3.526281
H       0.814393    1.737515    0.021724
H       1.169309   -1.032145    1.859904
H      -2.152788   -0.983816   -0.265568
H       0.047000   -3.018015   -0.084074
H       1.817733   -0.964635   -1.079950
