17

C       0.103490    1.529425    0.034384
C       0.014306    0.004170    0.040617
C       0.721955   -0.679137   -1.165446
O       1.688333   -1.570462   -0.560921
C       1.567893   -1.386672    0.766683
N       0.700245   -0.570252    1.214303
C       2.506486   -2.198145    1.634615
N       2.312209   -1.952931    2.953911
O       3.322168   -2.965738    1.170863
H       1.148437    1.854191   -0.000690
H      -0.416071    1.943428   -0.836112
H      -0.352781    1.942894    0.937458
H      -1.041676   -0.287663    0.088733
H       0.053577   -1.276549   -1.789889
H       1.264417    0.029897   -1.798865
H       1.605319   -1.295547    3.240154
H       2.878683   -2.436503    3.629315
