15

C      -0.021898   -1.240836   -0.089696
C      -0.005720   -0.041966   -0.027872
C       0.051288    1.412993    0.046372
N      -0.150243    1.997522    1.435739
C       1.100573    2.779574    1.280296
C       2.234452    1.810227    1.219039
C       1.441387    2.101545   -0.031780
C      -0.870715    2.019261   -0.923013
N      -1.599040    2.525359   -1.664414
H      -0.045768   -2.301697   -0.142647
H      -0.976165    2.588630    1.439994
H       1.174785    3.813386    1.590932
H       3.229541    2.242949    1.209651
H       2.145087    0.852269    1.721872
H       1.873731    2.464212   -0.953570
