20

O      -0.103207    1.464287   -0.007206
C       0.031219    0.052175   -0.041157
C      -1.364653   -0.550444    0.083100
C      -1.360315   -2.058962    0.069870
C      -0.714403   -3.064520    1.025260
N      -1.381131   -4.019731    0.043938
C      -2.574619   -3.034640   -0.082387
C      -2.503363   -3.076198   -1.611147
C      -1.055069   -3.042529   -1.115827
H       0.773563    1.852798   -0.078220
H       0.497229   -0.283038   -0.982015
H       0.667457   -0.308264    0.783229
H      -1.819132   -0.188551    1.013875
H      -1.984375   -0.168184   -0.737525
H       0.378321   -3.147139    1.037676
H      -1.112644   -3.137548    2.043757
H      -3.435059   -3.128269    0.583874
H      -2.827900   -4.008469   -2.080484
H      -2.868278   -2.200685   -2.153214
H      -0.121180   -3.148087   -1.672364
