16

N      -0.102478    1.357834    0.027124
C       0.075284    0.018247   -0.121967
O       1.128897   -0.509152   -0.418747
C      -1.204759   -0.808424    0.053637
C      -0.978358   -2.316470    0.202903
O      -2.108869   -2.795831    0.940393
C      -2.443601   -1.820509    1.900688
C      -2.034909   -0.478749    1.298303
O      -2.300697    0.617822    1.726094
H       0.727363    1.930369    0.023097
H      -0.918059    1.686074    0.528026
H      -1.853665   -0.598711   -0.807530
H      -0.950015   -2.856467   -0.743296
H      -0.039091   -2.504628    0.739853
H      -3.514667   -1.861679    2.118130
H      -1.894857   -1.953968    2.850036
