15

O      -0.070139   -0.088670   -0.001713
C      -0.055556    1.118249    0.007634
N       1.124917    1.865472    0.000619
C       2.364371    1.204184   -0.018190
C       3.520968    1.856818   -0.025687
C       3.586254    3.351645   -0.014544
N       2.245093    3.921447    0.005061
C       1.044358    3.281721    0.012714
O      -0.020264    3.864989    0.028717
H      -0.940834    1.765311    0.022501
H       2.265855    0.126979   -0.025667
H       4.454026    1.308443   -0.040292
H       4.152168    3.703544    0.861860
H       4.132467    3.717536   -0.897701
H       2.148016    4.924966    0.013725
