21

C       0.003105    1.530921    0.008163
C       0.044558    0.003909    0.005784
O      -1.287532   -0.526078    0.056486
C       0.800464   -0.603014   -1.206659
C       1.273340   -1.977949   -0.741558
C       2.555431   -2.032576    0.036820
O       3.394774   -0.913911   -0.016197
C       1.240632   -1.983909    0.782576
C       0.747202   -0.613249    1.237179
H       1.011889    1.955190    0.020023
H      -0.506088    1.908265   -0.887199
H      -0.542623    1.896241    0.883306
H      -1.742778   -0.248365   -0.745605
H       0.138301   -0.674561   -2.075562
H       1.647717    0.029738   -1.487566
H       0.988298   -2.853645   -1.312656
H       3.083545   -2.986325    0.038023
H       3.823380   -0.822010    0.841337
H       0.930912   -2.863796    1.334740
H       1.575582    0.028632    1.555336
H       0.038290   -0.687539    2.064458
