19

C      -0.024837    1.515997    0.005481
C       0.075161   -0.003988    0.044594
C       1.064092   -0.631400   -0.962786
O       2.322358    0.027592   -0.616795
C       2.258029   -0.794187    0.552463
C       1.506004   -1.929269   -0.169460
C       0.586667   -2.132700    1.045924
C       0.816084   -0.611470    1.261481
O       0.588128    0.045098    2.462499
H       0.967261    1.970684    0.013103
H      -0.548468    1.845961   -0.898399
H      -0.580291    1.881097    0.873380
H      -0.920731   -0.451567   -0.047221
H       0.841442   -0.615344   -2.029196
H       3.171430   -0.867156    1.143354
H       2.000073   -2.730335   -0.713573
H      -0.440977   -2.480107    0.910690
H       1.090008   -2.748337    1.800086
H       1.086301   -0.397531    3.156859
