18

C      -0.037632    1.389659    0.292035
C      -0.073188   -0.050963   -0.144829
C       0.673088   -0.611005   -1.284612
N       1.319881   -0.729286    0.048506
C       1.388905   -2.259335   -0.116720
C       0.256379   -2.073679   -1.120523
C      -0.989429   -2.176162   -0.614241
C      -1.425743   -0.794426   -0.111831
O      -1.924121   -0.887345    1.210186
H       0.947409    1.830135    0.129920
H      -0.779867    1.970798   -0.267485
H      -0.284014    1.466781    1.354972
H       1.133447   -0.105538   -2.127100
H       2.392967   -2.466157   -0.500065
H       1.180482   -2.857520    0.774036
H      -1.294641   -3.031168   -0.015881
H      -2.126330   -0.223133   -0.744073
H      -2.855320   -1.126224    1.168269
