21

O      -0.003145    1.678446    0.435473
C       0.087902    0.251213    0.513863
C      -1.186366   -0.461439    0.068019
C      -2.387307   -0.041789    0.931292
O      -2.769436    1.305310    0.741626
C      -1.508966   -0.404022   -1.458546
C      -1.811772   -1.926822   -1.412000
O      -1.416621   -2.752876   -2.475526
C      -1.066280   -2.011304   -0.051383
H      -0.086170    1.913234   -0.495692
H       0.947304   -0.107570   -0.072323
H       0.295250    0.033105    1.567893
H      -3.263711   -0.648691    0.677075
H      -2.149728   -0.252454    1.989306
H      -1.964769    1.829022    0.859843
H      -2.305599    0.272288   -1.774364
H      -0.612314   -0.207686   -2.060875
H      -2.881864   -2.112090   -1.288773
H      -0.473928   -2.621617   -2.623015
H      -0.025553   -2.327055   -0.192648
H      -1.507655   -2.621406    0.741672
