12

C       0.122159   -1.206414   -0.005555
C       0.036669   -0.005413    0.002389
C      -0.060230    1.395167    0.011674
C      -1.149987    2.258989    0.031816
N      -0.735457    3.569943    0.033399
C       0.574004    3.516951    0.014832
N       1.033298    2.234417    0.001205
C      -2.518915    1.885531    0.048824
N      -3.630219    1.562522    0.062506
H       0.180097   -2.267283   -0.012300
H       1.238653    4.367551    0.010357
H       1.993510    1.929755   -0.013890
