15

O       0.003567   -0.006649   -0.102216
C      -0.021409    1.192355    0.012346
C      -1.266938    2.102861    0.063513
N      -0.773484    3.427384    0.472896
C      -0.151876    3.317943    1.850005
C       1.216471    3.169582    1.211556
C       0.609044    3.532884   -0.104255
C       1.146383    2.133412    0.067732
H      -1.705991    2.163808   -0.940130
H      -2.031378    1.721741    0.744949
H      -0.269461    4.263752    2.386201
H      -0.535520    2.499080    2.468922
H       2.178817    3.448122    1.623624
H       0.871980    4.240138   -0.879882
H       2.095063    1.828167   -0.354907
