20

C       0.057516    1.524797   -0.318624
C      -0.036310    0.066636    0.076635
C       1.169701   -0.840720    0.015256
C       0.557897   -0.484953    1.352566
C       1.311623    0.365932    2.357099
C       2.216176   -0.474815    3.228379
C       2.444353   -0.178724    4.647234
O       1.575629   -1.242649    4.253706
H       1.027128    1.960692   -0.060694
H      -0.071266    1.640092   -1.400540
H      -0.717103    2.124539    0.172773
H      -0.976241   -0.397058   -0.213255
H       1.056093   -1.849816   -0.365576
H       2.121328   -0.379643   -0.235361
H      -0.019665   -1.273726    1.827550
H       1.921395    1.120265    1.845759
H       0.607497    0.904696    3.003286
H       2.993120   -1.025266    2.694298
H       3.373660   -0.484747    5.126253
H       1.952819    0.681707    5.100635
