18

C      -0.088868    1.547837    0.087179
C       0.007934    0.023311   -0.022667
C       0.777262   -0.478295   -1.258120
C       2.250479   -0.052910   -1.260408
C       0.645219   -2.019623   -1.342502
C       1.224585   -2.584525   -2.559239
N       1.683812   -3.013348   -3.529432
H       0.892629    2.012201    0.219170
H      -0.545276    1.980542   -0.810013
H      -0.705351    1.835122    0.944213
H       0.482424   -0.381600    0.882177
H      -1.006656   -0.395242   -0.047065
H       0.294796   -0.061910   -2.152523
H       2.775377   -0.455608   -2.131406
H       2.350582    1.034928   -1.287396
H       2.762994   -0.414835   -0.360654
H       1.134788   -2.484252   -0.477308
H      -0.410673   -2.310244   -1.299804
