17

O       0.051737    0.112923    0.654660
C      -0.002705    1.125591    0.013567
C      -1.333009    1.810577   -0.331171
C      -1.223457    3.308840   -0.491842
C      -0.092934    3.754288   -1.012671
C       0.753994    5.007378   -1.091907
C       1.986340    4.072330   -0.829700
C       1.095095    2.864120   -1.239884
O       1.151185    1.691148   -0.433108
H      -1.708984    1.334807   -1.248853
H      -2.029476    1.527067    0.460167
H      -2.024433    3.948684   -0.135671
H       0.779300    5.451992   -2.092065
H       0.552977    5.795994   -0.364178
H       2.891613    4.243989   -1.413859
H       2.231669    4.018385    0.232361
H       1.259175    2.573275   -2.285187
