25

C      -0.015389    1.627427    0.009034
C       0.053479    0.108480    0.015204
C       1.055946   -0.607282   -0.934562
C       1.366564   -1.616068    0.194946
C       0.750829   -0.609361    1.205660
C       0.746295   -3.040558    0.180090
C       2.015784   -3.565072    0.909484
C       2.594457   -4.911654    0.504688
C       2.743781   -2.264341    0.465100
H       0.979659    2.064610    0.152845
H      -0.410278    2.005553   -0.940913
H      -0.662279    2.002400    0.810493
H      -0.949542   -0.308751   -0.128743
H       0.674929   -1.009407   -1.878519
H       1.921439    0.030102   -1.152397
H       1.521726    0.027678    1.655179
H       0.120382   -1.009401    2.005772
H      -0.222771   -3.181201    0.668774
H       0.683135   -3.438334   -0.839684
H       1.852904   -3.542082    1.992898
H       2.764112   -4.955010   -0.577563
H       3.554506   -5.098853    0.999236
H       1.919020   -5.733593    0.768532
H       3.303343   -2.419974   -0.465201
H       3.401067   -1.768855    1.186490
