15

N       0.112459   -1.155352    0.057645
C       0.007685   -0.001823    0.029339
C      -0.063296    1.422187   -0.001765
C      -1.234791    2.072558    0.000656
C      -1.296982    3.571866    0.025330
C       0.066733    4.152409    0.408378
O       1.100884    3.534522   -0.340786
C       1.259242    2.171669   -0.027841
H      -2.164971    1.512959   -0.007689
H      -1.607533    3.944923   -0.960151
H      -2.064651    3.904229    0.735047
H       0.123390    5.220806    0.187122
H       0.242429    4.016356    1.487615
H       1.770228    2.041517    0.942279
H       1.912461    1.747568   -0.797070
