16

O      -0.017877    1.379636   -0.179666
C       0.051696   -0.035888   -0.155768
C      -1.358137   -0.550930    0.151648
C      -1.448390   -2.030234    0.200526
C      -1.708912   -2.957649    1.147958
N      -1.653404   -4.242817    0.599490
C      -1.362599   -4.013717   -0.637670
O      -1.184662   -4.887841   -1.626093
O      -1.217251   -2.728296   -0.985452
H       0.853515    1.721314   -0.399516
H       0.387208   -0.442264   -1.121529
H       0.748605   -0.396790    0.616599
H      -1.677961   -0.153546    1.119850
H      -2.042698   -0.144467   -0.603047
H      -1.937677   -2.799940    2.190108
H      -1.318931   -5.764888   -1.244593
