17

O       0.151331   -0.125942   -0.510952
C       0.092641    1.038192   -0.198788
C       1.290563    1.931304   -0.096150
C       1.216556    3.367021   -0.696546
C       0.350991    3.861814    0.514979
C       0.826251    5.274587    0.833934
O       2.244990    5.135196    0.640711
C       2.365421    3.782816    0.271989
C       1.417760    2.887592    1.127352
H      -0.887572    1.510661    0.033288
H       2.187853    1.357565   -0.345902
H       1.099017    3.638455   -1.745956
H      -0.714554    3.652663    0.577539
H       0.426249    6.032554    0.149789
H       0.615557    5.581416    1.865465
H       3.403114    3.510983    0.086078
H       1.531467    2.607639    2.174926
