15

O      -0.106389    1.449134    0.028085
C      -0.010638    0.031477    0.025100
C       0.597752   -0.506067    1.359898
C      -0.620222   -0.843601    2.180939
C      -1.733105   -0.841966    1.452106
C      -1.473608   -0.496335    0.008793
C       0.767849   -0.410223   -1.149517
N       1.401572   -0.734708   -2.060180
H       0.784529    1.814683    0.076831
H       1.228518   -1.387497    1.189752
H       1.237400    0.260259    1.813300
H      -0.557027   -1.080530    3.236376
H      -2.725321   -1.080106    1.816707
H      -2.125253    0.288497   -0.386598
H      -1.580226   -1.370394   -0.644272
