15

O       0.412615   -0.028141    0.509011
C       0.150260    1.122907    0.231186
C       1.190977    2.090152   -0.069936
C       2.035674    2.910651   -0.319974
C      -1.267219    1.643583    0.124560
C      -1.880408    1.545159   -1.324699
C      -3.095075    0.848601   -0.681153
O      -4.196471    0.601464   -1.072193
C      -2.381323    0.705680    0.667027
H       2.796736    3.620352   -0.538393
H      -1.322738    2.665293    0.504710
H      -2.079260    2.478183   -1.855605
H      -1.324100    0.870888   -1.984104
H      -1.996744   -0.308295    0.821340
H      -2.935390    1.021078    1.553441
