16

O       0.031417   -0.074700    0.128615
C      -0.020015    1.149284    0.072052
C       1.210549    1.939054    0.075092
C       2.230978    2.578654    0.074077
C      -1.249924    1.912406    0.010151
C      -2.483951    1.348500   -0.024933
N      -3.487129    2.264313   -0.143959
C      -2.941299    3.611268    0.107192
C      -1.414604    3.421551   -0.106592
H       3.141745    3.126005    0.073283
H      -2.702733    0.289055   -0.002501
H      -4.422235    2.036666    0.155065
H      -3.383789    4.344228   -0.571800
H      -3.160878    3.923393    1.137437
H      -0.827578    3.983602    0.623713
H      -1.111984    3.776852   -1.099625
