14

N      -0.007752    1.338622    0.009841
C       1.242379    1.879942    0.000514
C       2.131610    0.810578   -0.014104
C       3.533372    0.641264   -0.028829
N       4.076402   -0.552833   -0.040745
C       3.226341   -1.631719   -0.038317
N       1.917821   -1.639243   -0.025470
C       1.347116   -0.403181   -0.013055
C       0.009758   -0.031637    0.002176
H      -0.853629    1.885140    0.021166
H       1.394449    2.946580    0.004885
H       4.208344    1.497294   -0.030771
H       3.723946   -2.598631   -0.048519
H      -0.895681   -0.613813    0.007895
