17

C      -0.032649    1.602135    0.192538
N       0.024593    0.160748    0.128173
C      -1.226419   -0.601868    0.318514
C      -0.464320   -1.608849    1.213760
C       0.716092   -0.581473    1.208682
C       1.695700   -1.639372    0.642971
C       0.476061   -2.571030    0.453975
O       0.314636   -3.636746   -0.062735
H       0.978560    2.017435    0.127038
H      -0.606173    1.987210   -0.657317
H      -0.502011    1.984911    1.119407
H      -1.984374   -0.052896    0.899578
H      -1.687968   -0.979016   -0.600314
H      -0.962888   -2.004701    2.097325
H       1.009389    0.001171    2.085660
H       2.264725   -1.372053   -0.249639
H       2.372797   -2.053556    1.400744
