20

C       0.355495    1.540608    0.089195
C      -0.241387    0.153055   -0.132584
N       0.512624   -0.555637   -1.165820
C       1.724508   -1.302430   -0.884779
C       1.648071   -2.114400    0.401684
O       1.653233   -3.509143    0.048410
C       0.411268   -2.785749   -0.053811
C      -0.772774   -3.325991    0.682259
C       0.458258   -1.990716   -1.362840
H       1.382400    1.468700    0.462854
H       0.376725    2.104554   -0.847381
H      -0.231900    2.100745    0.822996
H      -0.283841   -0.389353    0.822582
H      -1.271335    0.243057   -0.497687
H       2.622024   -1.084828   -1.451914
H       1.969375   -1.863821    1.405922
H      -0.479571   -3.669201    1.677774
H      -1.552374   -2.564918    0.783537
H      -1.204534   -4.177407    0.144444
H       0.238644   -2.375137   -2.352909
