23

C      -0.075895    1.556243    0.053224
C       0.026895    0.031325   -0.090261
C       0.798052   -0.357487   -1.360123
C       0.672361   -0.578292    1.155329
C      -0.019806   -0.457512    2.540899
C       0.463895   -1.891995    2.872443
C       0.723772   -2.145309    1.355597
C      -0.409369   -2.873612    0.685289
O      -0.285460   -3.624206   -0.250880
H       0.919962    2.008617    0.133611
H      -0.571576    1.999460   -0.816382
H      -0.644864    1.841140    0.944089
H      -0.995406   -0.364918   -0.177284
H       1.827437    0.018728   -1.318298
H       0.839743   -1.442501   -1.491381
H       0.325605    0.070324   -2.250322
H       1.702864   -0.209171    1.232043
H       0.302647    0.351366    3.200189
H      -1.109428   -0.406384    2.443056
H       1.398213   -1.898073    3.438165
H      -0.244247   -2.561182    3.369007
H       1.658204   -2.632054    1.070102
H      -1.418814   -2.676308    1.119098
