23

C       0.107414    1.652026    0.276219
C       1.334568    0.815583   -0.007658
C       2.363491    0.453770    1.051936
C       1.809654    0.039091    2.423283
C       1.294572    1.154154    3.384860
C      -0.108148    0.484404    3.425010
C       0.390248   -0.638278    2.463517
C      -0.343108   -0.837580    1.128691
C      -0.026856    0.166088    0.030968
H      -0.050937    2.043315    1.271573
H      -0.233662    2.320410   -0.507679
H       1.771636    0.958151   -0.992655
H       2.960228   -0.377771    0.652292
H       3.068368    1.285339    1.191361
H       2.565232   -0.582154    2.912230
H       1.810279    1.185019    4.348055
H       1.316819    2.163984    2.966902
H      -0.410918    0.124231    4.411555
H      -0.926340    1.093063    3.031294
H       0.421077   -1.605515    2.972834
H      -0.090445   -1.833252    0.738724
H      -1.425326   -0.858693    1.318843
H      -0.457620   -0.105370   -0.929410
