17

O      -0.064482    1.432450   -0.129765
C      -0.013844    0.015698   -0.160935
C      -1.424022   -0.495665    0.132282
C      -1.482000   -1.985402    0.200471
O      -1.375093   -2.763182   -0.996110
C      -2.497890   -2.982626   -0.142081
C      -2.025778   -3.894150    1.061409
O      -0.642939   -4.189374    0.880446
C      -0.999235   -2.912716    1.404524
H       0.803661    1.770132   -0.368109
H       0.311518   -0.359843   -1.142112
H       0.689486   -0.377776    0.591071
H      -1.761130   -0.069297    1.085038
H      -2.105346   -0.136558   -0.645524
H      -3.494068   -2.885456   -0.556592
H      -2.625504   -4.555794    1.673382
H      -0.585994   -2.605803    2.357782
