19

O      -0.153308    1.498835    0.576954
C       0.000414    0.174042    0.088583
C       0.666576   -0.743554    1.123955
C      -0.497990   -1.022358    2.080223
O      -1.673131   -1.029489    1.267898
C      -1.391994   -0.469865   -0.019578
C      -2.518818    0.484405   -0.425703
C      -3.867005   -0.202033   -0.440081
O      -4.613902   -0.212918   -1.386513
H       0.722614    1.875164    0.705462
H       0.513974    0.169557   -0.882049
H       1.008099   -1.665923    0.642145
H       1.526010   -0.274862    1.611527
H      -0.416189   -1.987070    2.590853
H      -0.579031   -0.232476    2.838612
H      -1.329766   -1.288712   -0.753582
H      -2.549140    1.299972    0.305408
H      -2.328747    0.907476   -1.416204
H      -4.134001   -0.708048    0.511750
