17

C       0.012080    1.480530   -0.017562
C       0.020167    0.024470   -0.018950
C       0.028353   -1.179689   -0.006239
C       0.026373   -2.641056   -0.018580
C      -1.389754   -3.213154    0.178863
C       0.671251   -3.144459   -1.343636
C       0.823690   -4.597115   -1.380103
N       0.940084   -5.746995   -1.389280
H       0.644374    1.880462    0.782589
H       0.385592    1.880652   -0.966479
H      -1.000060    1.872032    0.131619
H       0.658538   -3.000824    0.803637
H      -1.364727   -4.306428    0.184087
H      -1.808367   -2.869277    1.127463
H      -2.054678   -2.881994   -0.624755
H       0.055645   -2.828731   -2.192946
H       1.655190   -2.683455   -1.472954
