27

C       0.117237    1.507691   -0.022017
C       0.012314   -0.020832    0.038487
C       0.725010   -0.587823    1.271879
C      -1.455804   -0.453285   -0.004650
O      -1.500302   -1.863345   -0.092378
C      -2.778784   -2.516787   -0.089871
C      -3.638142   -2.061140   -1.280529
C      -2.420787   -3.999520   -0.236890
C      -3.517914   -2.282572    1.238001
H       1.164125    1.826993   -0.026581
H      -0.359553    1.911155   -0.921885
H      -0.363826    1.971221    0.847845
H       0.489622   -0.439742   -0.857519
H       0.298324   -0.171146    2.192979
H       0.620366   -1.674161    1.312444
H       1.791707   -0.341009    1.259708
H      -1.969370   -0.090211    0.900381
H      -1.949533    0.013339   -0.870817
H      -3.080305   -2.170936   -2.215472
H      -4.544832   -2.670272   -1.348236
H      -3.951170   -1.017328   -1.185329
H      -1.786572   -4.319169    0.594805
H      -3.321276   -4.620532   -0.248215
H      -1.869979   -4.164451   -1.167138
H      -3.826412   -1.240084    1.358656
H      -4.421907   -2.898011    1.282401
H      -2.876298   -2.552559    2.082095
