16

O      -0.294945    1.434161   -0.014428
C      -0.077199    0.039688   -0.038722
C       0.318769   -0.686346    1.269695
C      -0.792534   -1.745139    0.983684
O      -1.614455   -2.166881    2.017812
C      -1.438362   -0.733233   -0.033063
O      -2.422975    0.011266    0.644171
C      -1.929829   -1.252274   -1.309920
N      -2.274389   -1.687121   -2.323979
H       0.355390    1.842851    0.564987
H       0.545145   -0.245474   -0.893076
H       1.346061   -1.041553    1.358616
H       0.058120   -0.090163    2.148839
H      -0.395796   -2.628203    0.477856
H      -2.205670   -1.425107    2.210803
H      -2.158038    0.941067    0.550997
