19

C       0.025803    1.395542   -0.498516
C       0.007441   -0.071117   -0.096493
C       0.223877   -0.299653    1.395215
O      -1.303297   -0.575868   -0.480829
C      -1.399309   -1.884532   -0.746389
O      -0.495715   -2.682760   -0.679128
C      -2.796260   -2.282507   -1.131700
C      -3.971585   -1.702956   -0.452539
O      -3.624130   -1.316067   -1.772468
H       1.002329    1.832940   -0.270591
H      -0.162739    1.507099   -1.569322
H      -0.739086    1.957522    0.046339
H       0.749950   -0.638324   -0.664629
H       0.206610   -1.366766    1.626944
H       1.196744    0.100656    1.696797
H      -0.551592    0.206461    1.979224
H      -2.849001   -3.293335   -1.528598
H      -4.870814   -2.309198   -0.355259
H      -3.816001   -0.944892    0.311581
