15

N      -0.023387    1.204464    0.476080
C       0.005965    0.038336   -0.014205
O       1.182891   -0.572757   -0.333018
C       1.197186   -1.803714   -1.069113
C       0.134112   -2.771009   -0.578304
C      -1.240844   -2.130672   -0.774134
C      -1.313907   -0.725674   -0.194886
O      -2.357437   -0.211447    0.111382
H       0.928309    1.573240    0.549313
H       1.056826   -1.586235   -2.137685
H       2.206641   -2.199038   -0.935486
H       0.209669   -3.713888   -1.129495
H       0.310109   -2.996549    0.479870
H      -1.451475   -2.035941   -1.849480
H      -2.058778   -2.715682   -0.346293
