19

C      -0.528901    1.274983   -0.123227
C       0.011274   -0.126424   -0.009704
O       1.422461   -0.325052   -0.195155
C       0.864232   -0.614383    1.090377
C       1.318734    0.217224    2.257856
C       0.477997    0.194061    3.527889
C       1.780932   -0.520662    3.522541
C       2.081177    1.473838    1.994345
O       2.336998    2.292430    2.848380
H      -0.503086    1.608005   -1.165883
H      -1.571800    1.299974    0.210297
H       0.036958    1.992117    0.474897
H      -0.590562   -0.881091   -0.520858
H       0.805981   -1.683055    1.311496
H       0.421827    1.136265    4.060951
H      -0.436325   -0.388460    3.495650
H       1.786831   -1.604499    3.473122
H       2.609306   -0.071356    4.057435
H       2.431477    1.594645    0.952325
