23

C      -0.126119    1.449644    0.005289
C       0.011637   -0.043938   -0.019720
C       0.949356   -0.873721   -0.893940
C       0.104430   -2.110568   -0.473897
C      -0.002742   -3.323118   -1.360895
C       0.412190   -2.244960    1.046077
C      -0.318311   -0.917668    1.209495
C      -1.073431   -1.097389   -0.090976
C      -2.525449   -1.046854   -0.436936
H       0.767304    1.926513    0.426452
H      -0.273830    1.855462   -1.002497
H      -0.980874    1.761531    0.615759
H       0.814018   -0.634461   -1.954626
H       2.022115   -0.892879   -0.660018
H       0.967256   -3.828432   -1.447145
H      -0.719305   -4.050490   -0.962979
H      -0.325216   -3.054754   -2.373378
H      -0.148026   -3.069862    1.498635
H       1.466748   -2.315878    1.341081
H      -0.684096   -0.460884    2.121878
H      -3.001645   -0.168019    0.012514
H      -2.685019   -0.987083   -1.520527
H      -3.062993   -1.931002   -0.073352
