16

C       0.050900    1.482699   -0.035904
N      -0.123251    0.049632    0.104546
C       0.556125   -0.660983    1.056881
C       0.708304   -2.043538    1.146002
O       1.426728   -2.344521    2.285954
C       1.715806   -1.186148    2.886143
C       1.223792   -0.115827    2.200469
C       0.264377   -3.104977    0.291553
O       0.449225   -4.295991    0.451625
H       1.087480    1.773981   -0.260918
H      -0.591159    1.836777   -0.844816
H      -0.258536    1.996119    0.880347
H      -0.346109   -0.448002   -0.741619
H       2.283724   -1.256729    3.800940
H       1.324205    0.921772    2.472900
H      -0.303995   -2.728460   -0.593874
