15

O      -0.132473    0.538567   -1.126883
C      -0.023556    1.323845   -0.214441
N       1.145004    1.678145    0.403780
C       2.411496    1.036001    0.165835
C       2.922634    1.041163   -1.261549
C       3.562542    1.945843   -0.254930
C       2.707561   -0.091782    1.013151
C       2.953798   -1.018429    1.738927
H      -0.881529    1.883077    0.212130
H       1.069333    2.250014    1.232181
H       3.460319    0.157813   -1.582099
H       2.258727    1.466538   -2.002059
H       3.339236    3.005590   -0.303554
H       4.546216    1.695436    0.123079
H       3.161781   -1.847501    2.368963
