18

C      -0.138646    1.463912   -0.474309
C       0.015537    0.122769    0.252455
C      -1.304378   -0.608021    0.366588
N      -1.756754   -1.377664   -0.808061
C      -1.477254   -2.083265    0.461981
C      -0.362548   -3.101307    0.377923
O      -0.738324   -4.187573   -0.452706
H       0.820242    1.984699   -0.553302
H      -0.525990    1.309477   -1.486235
H      -0.834417    2.125323    0.054396
H       0.736074   -0.500365   -0.284637
H       0.420977    0.286146    1.259395
H      -2.072292   -0.028749    0.881783
H      -2.757783   -1.272388   -0.944679
H      -2.342949   -2.430406    1.024509
H       0.562630   -2.630503    0.018511
H      -0.157907   -3.523080    1.367807
H      -1.005325   -3.789698   -1.290310
