18

C       0.379917    1.264732    0.572155
C      -0.030853   -0.130802    0.069520
N       0.358088   -1.138051    1.077430
C      -1.557941   -0.218559   -0.193869
C      -2.490618    0.201128    0.955294
N      -2.184203   -0.311703    2.176777
O      -3.460800    0.901731    0.742666
C       0.662311   -0.397062   -1.214927
N       1.218319   -0.643026   -2.198612
H       1.464689    1.326062    0.698668
H       0.076767    2.032894   -0.142418
H      -0.100564    1.463078    1.532353
H       0.243624   -2.073694    0.695804
H       1.342597   -1.036249    1.307905
H      -1.816626    0.419719   -1.039789
H      -1.805901   -1.247990   -0.480390
H      -1.298936   -0.782061    2.316706
H      -2.753194   -0.030105    2.958677
