20

O      -0.034050    1.456072   -0.035248
C       0.060024    0.041518   -0.039473
C       0.713685   -0.552283    1.258869
C      -0.044598   -1.833136    1.489129
C      -0.785689   -2.430607    2.700156
C      -2.104293   -2.427546    1.836836
C      -1.289593   -1.830390    0.674327
C      -1.381370   -0.550333   -0.113495
N      -0.207947   -2.794874    0.376701
H       0.851452    1.818352   -0.137797
H       0.636336   -0.281824   -0.919737
H       1.800756   -0.658899    1.158852
H       0.524291    0.147484    2.081262
H      -0.422030   -3.401595    3.044191
H      -0.842280   -1.743193    3.547389
H      -2.567983   -3.396763    1.639579
H      -2.855904   -1.738536    2.228974
H      -2.058370    0.152529    0.385364
H      -1.722222   -0.652810   -1.149184
H       0.319544   -2.470855   -0.430456
