19

C      -0.186272    1.536308    0.061035
C       0.002452    0.021598   -0.043070
O       0.687729   -0.343094   -1.232070
C       0.735608   -0.555280    1.173416
C       0.916975   -2.074890    1.160184
C       2.269920   -2.271389    1.835090
O       2.735613   -3.284536    2.281768
C       2.934694   -0.889695    1.857520
O       2.077732   -0.025663    1.137130
H       0.779978    2.036140    0.177689
H      -0.668765    1.912444   -0.844264
H      -0.810088    1.796894    0.922764
H      -0.978142   -0.465342   -0.106538
H       1.599182   -0.048573   -1.107565
H       0.237653   -0.229204    2.100126
H       0.132650   -2.641659    1.664439
H       0.991111   -2.419427    0.121455
H       3.056967   -0.568562    2.904549
H       3.923228   -0.908496    1.388597
