18

C      -0.028622    1.569196    0.015616
C       1.528486    1.533443    0.002659
C       2.066689    1.474623    1.441019
C       1.760075    0.048641    1.868409
C       0.514539   -0.641647    1.329390
C       1.889020   -0.891738    0.706478
C       1.468942    0.017239   -0.473890
C      -0.004405    0.027372    0.034785
H      -0.509036    2.098040    0.845435
H      -0.437620    1.942692   -0.928445
H       2.039692    2.261482   -0.629075
H       3.151041    1.639502    1.472633
H       1.598146    2.234167    2.077307
H       2.086504   -0.297567    2.844052
H      -0.068550   -1.292356    1.971011
H       2.501216   -1.783993    0.680099
H       1.736612   -0.226660   -1.499382
H      -0.787636   -0.541743   -0.469026
