19

C      -0.401744    1.614515   -0.291492
C       0.101472    0.207452   -0.025587
C       0.863832   -0.547538   -1.185823
C       2.018057   -0.625340   -0.203184
C       3.144657   -1.181364    0.362565
N       4.163168   -1.950058   -0.241262
C       3.135829   -0.727788    1.724790
C       1.996193    0.031424    1.952853
N       1.362200    0.115793    0.749506
H       0.386417    2.230051   -0.735128
H      -1.252919    1.587171   -0.980026
H      -0.733178    2.095573    0.634547
H      -0.687261   -0.412148    0.415717
H       0.405852   -1.497622   -1.477821
H       1.020698    0.057971   -2.084910
H       3.835619   -2.429216   -1.071093
H       4.537612   -2.641493    0.397264
H       3.918511   -0.911491    2.447563
H       1.660464    0.544440    2.839699
