17

C       0.142296    1.606249   -0.120853
C       0.073594    0.157070   -0.078002
C       0.014952   -1.051496   -0.042164
C      -0.050568   -2.408250   -0.002578
C      -0.111597   -3.617667    0.037693
C      -0.164718   -5.065272    0.081702
C       0.317472   -5.766418    1.384850
C      -1.109769   -6.342383    1.434170
O      -1.504429   -5.599218    0.260182
H       1.089891    1.968926    0.293374
H       0.063699    1.977859   -1.148765
H      -0.669345    2.057881    0.460697
H       0.291395   -5.478311   -0.828745
H       1.126866   -6.484307    1.249971
H       0.566923   -5.077133    2.191002
H      -1.185917   -7.424763    1.273787
H      -1.709935   -6.068961    2.309265
