23

C       0.133870    1.494258   -0.108422
C       0.093354   -0.041563   -0.074018
C       0.934849   -0.634117   -1.211883
C       0.522246   -0.531195    1.309442
C       0.688106   -2.044149    1.592343
C       2.125933   -1.668179    1.924080
C       2.980012   -2.073049    3.080080
C       3.409198   -2.374999    1.647441
O       1.934486   -0.295290    1.578793
H       1.152429    1.851709    0.074729
H      -0.189975    1.875642   -1.081755
H      -0.517044    1.928720    0.657826
H      -0.951052   -0.364274   -0.200446
H       1.989458   -0.377356   -1.077747
H       0.855890   -1.724289   -1.263408
H       0.606242   -0.236002   -2.176837
H      -0.087941   -0.026422    2.071245
H       0.094141   -2.432298    2.421946
H       0.568402   -2.696582    0.725207
H       3.511428   -1.283486    3.600566
H       2.651618   -2.894055    3.709775
H       3.374557   -3.401779    1.296753
H       4.219688   -1.781675    1.237389
