23

C      -0.070707    1.550501    0.201459
C      -0.174633    0.022073    0.200254
C      -1.556951   -0.526974   -0.204615
C      -1.959211   -0.162940   -1.641970
C      -1.594409   -2.037124   -0.032892
C      -1.840766   -2.693563    1.305068
O      -2.141046   -1.824584    2.373967
C      -2.895625   -2.777110    0.225032
O      -4.077158   -2.060123    0.426716
H       0.909558    1.874206    0.565790
H      -0.203151    1.973315   -0.799072
H      -0.829808    1.996727    0.854089
H       0.588329   -0.396796   -0.471208
H       0.059275   -0.352899    1.203331
H      -2.297319   -0.086113    0.471936
H      -2.950322   -0.564480   -1.870377
H      -1.992672    0.920028   -1.791664
H      -1.248003   -0.578401   -2.366544
H      -0.881167   -2.568636   -0.661148
H      -1.256057   -3.568286    1.582603
H      -2.544876   -2.350338    3.073333
H      -3.080385   -3.719277   -0.282321
H      -3.958424   -1.580210    1.258219
