16

O      -0.058567    1.476057    0.089217
C      -0.000650    0.082773   -0.024097
C      -1.357082   -0.642939   -0.108997
C      -2.319531    0.131828   -0.994911
O      -1.720798    0.507871   -2.251280
C      -0.425382    0.202509   -2.489106
O       0.123476    0.579823   -3.486112
C       0.240756   -0.617124   -1.396016
N      -0.732060   -1.693313   -0.986884
H       0.832764    1.838098    0.050939
H       0.637866   -0.375951    0.744137
H      -1.851874   -0.986780    0.802009
H      -3.191400   -0.485771   -1.229095
H      -2.643353    1.053945   -0.503699
H       1.235692   -0.929760   -1.709965
H      -0.230022   -2.351660   -0.392455
