18

C      -0.057883    1.524564   -0.005411
C       0.006756   -0.008113    0.044359
C       0.840058   -0.472277    1.248766
C      -1.412347   -0.601098    0.042397
C      -1.474907   -2.117181   -0.099980
O      -2.844170   -2.481286   -0.214700
H       0.944706    1.963005   -0.047651
H      -0.615106    1.872257   -0.881529
H      -0.557197    1.923817    0.885553
H       0.514947   -0.350735   -0.869282
H       1.833618   -0.011801    1.237006
H       0.354692   -0.188050    2.190435
H       0.981607   -1.557123    1.261985
H      -1.937611   -0.312225    0.962374
H      -1.985334   -0.171122   -0.788136
H      -0.905247   -2.428937   -0.991886
H      -1.011571   -2.607535    0.769631
H      -2.895957   -3.440025   -0.265622
