14

O       0.001760    1.352094    0.083432
N       0.034166   -0.016886   -0.058084
C      -1.104897   -0.599076   -0.007389
C      -1.108447   -2.108151   -0.134968
N      -2.181949   -2.651984   -0.962979
C      -3.244165   -1.963634   -1.025528
N      -3.454603   -0.728894   -0.414713
C      -2.443489    0.068483    0.119944
O      -2.677736    1.157486    0.588084
H       0.930555    1.590362   -0.022689
H      -0.140298   -2.433158   -0.522696
H      -1.209935   -2.558912    0.865755
H      -4.102185   -2.331767   -1.586289
H      -4.368305   -0.298205   -0.449321
