18

C      -0.100534    1.507829   -0.066511
C       0.052032    0.003990   -0.027329
C       1.412478   -0.644271   -0.135346
O       2.564041    0.147569   -0.138552
C       0.679796   -0.668574    1.172724
C       1.134998   -0.112126    2.514495
O       0.645378   -1.339276    3.156226
C       0.217015   -1.852917    1.943745
N      -0.352838   -2.933277    1.657968
H       0.796256    2.003395    0.313897
H      -0.265657    1.853720   -1.092783
H      -0.955350    1.835644    0.533495
H      -0.762000   -0.565686   -0.468909
H       1.489961   -1.590571   -0.669355
H       2.684265    0.500798   -1.026712
H       2.212512    0.002607    2.647882
H       0.600626    0.762793    2.893482
H      -0.506221   -3.508205    2.487284
