15

O       0.006655    0.056604   -0.228140
C      -0.016052    1.237500   -0.044741
C      -1.274978    2.116749    0.152512
C      -0.771869    3.337482    0.901260
C       0.704125    3.246466    1.085109
C       1.197538    2.197052    0.083830
N       1.219410    2.891425   -1.231505
C       0.570690    3.974286   -1.064757
N       0.143545    4.336361    0.248534
H      -1.731186    2.330858   -0.818881
H      -2.016846    1.573477    0.744241
H      -1.413191    3.786294    1.651241
H       1.234832    3.515990    1.990321
H       2.132978    1.683761    0.295821
H       0.363660    4.667403   -1.874145
