19

C       0.058442    1.467132    0.012710
C       0.007166   -0.040049   -0.039136
C      -1.310720   -0.847538   -0.212502
C      -0.386211   -1.959444   -0.739029
C       0.670020   -2.229922    0.372507
C       1.825704   -1.577044   -0.431048
O       2.194250   -0.703111    0.651569
C       0.799210   -0.814991    1.041674
C       0.654961   -0.891065   -1.213443
H       1.095747    1.808504    0.087691
H      -0.385155    1.916656   -0.881898
H      -0.488631    1.850053    0.882930
H      -1.916015   -1.041237    0.681026
H      -1.947952   -0.430014   -0.998292
H      -0.730648   -2.793280   -1.348153
H       0.749744   -3.135174    0.970402
H       2.658623   -2.065159   -0.935467
H       0.618222   -0.599191    2.094967
H       0.719236   -0.472763   -2.215535
