15

O      -0.253010    0.126688   -0.637105
C      -0.088908    1.217207   -0.152945
C       1.226886    1.879612    0.011439
C       1.290091    3.419118   -0.050922
C       1.476591    2.727064    1.233504
C       0.752014    2.810099    2.570434
C       2.176510    2.749746    3.132751
O       2.717974    2.756651    4.186299
O       2.763654    2.675513    1.882596
H      -0.952366    1.822753    0.213739
H       2.078109    1.330930   -0.376373
H       2.161391    3.844263   -0.534978
H       0.358690    3.951457   -0.219389
H       0.227238    3.743666    2.780401
H       0.127573    1.959071    2.846929
