14

C      -0.153020    1.562212    0.065281
C      -0.057355    0.056273    0.107887
N       1.152949   -0.576750   -0.376512
C       0.846074   -0.704301    1.071076
C       1.791408    0.030622    1.981898
O       1.928476   -0.220605    3.147657
C       0.334109   -1.960228    1.566066
N      -0.076667   -2.980948    1.920744
H       0.823410    2.034276    0.184061
H      -0.559415    1.872130   -0.902829
H      -0.824554    1.929551    0.846884
H      -0.996597   -0.463002   -0.076636
H       0.965875   -1.456876   -0.850490
H       2.360183    0.829206    1.465003
