19

O       0.481127    0.503347    0.815098
C      -0.090741    0.235887   -0.446833
C      -1.418870   -0.488851   -0.331963
C      -2.009102   -1.445220   -1.328465
C      -0.949930   -2.360239   -1.966309
C      -0.594007   -2.890149   -0.523531
C       0.838691   -2.890110   -0.070788
O       1.293781   -2.247058    0.846633
C      -1.617482   -1.926977    0.079705
H       0.719924   -0.357632    1.187596
H      -0.256199    1.207678   -0.926287
H       0.606660   -0.315506   -1.095232
H      -2.182314    0.137365    0.126333
H      -3.001901   -1.306006   -1.738702
H      -1.381102   -3.143109   -2.591791
H      -0.148780   -1.870748   -2.526715
H      -0.931800   -3.931802   -0.450696
H       1.500863   -3.571750   -0.652158
H      -2.263548   -2.182775    0.910312
