20

C      -0.099029    1.528906   -0.013146
C       0.031282   -0.004434   -0.093109
C       0.802637   -0.396809   -1.277780
N       1.429390   -0.704226   -2.199361
C       0.680993   -0.599022    1.171201
C      -0.109615   -0.528674    2.524731
C       0.056151   -2.046426    2.672843
C      -0.586805   -2.743957    1.511324
C       0.770254   -2.122826    1.318925
H       0.884936    1.997214    0.081373
H      -0.583992    1.931998   -0.905492
H      -0.696917    1.803917    0.860032
H      -0.970993   -0.435431   -0.208896
H       1.669497   -0.146492    1.293442
H       0.415142    0.055338    3.282918
H      -1.145109   -0.173457    2.468346
H       0.296204   -2.561048    3.594542
H      -0.583022   -3.828126    1.554470
H      -1.475748   -2.328502    1.041314
H       1.626876   -2.718209    1.029155
