19

C       0.473577    1.579583    0.412498
C       0.150434    0.132202    0.043938
C       0.775681   -0.619900   -1.183420
C       2.229562   -0.311341   -1.622840
O       2.677060    0.999704   -1.842197
C       2.784484   -1.162692   -0.445218
C       1.337845   -1.726752   -0.202582
C       0.675524   -0.995415    0.959648
O       0.588672   -1.199775    2.136834
H       1.528883    1.716746    0.675980
H       0.225389    2.266392   -0.401992
H      -0.101861    1.875045    1.294644
H      -0.940650    0.023298   -0.016367
H       0.062745   -0.837689   -1.978602
H       2.418633   -0.834704   -2.565525
H       2.550664    1.508209   -1.036241
H       3.539938   -1.905815   -0.706046
H       3.166823   -0.571568    0.392513
H       1.200930   -2.801028   -0.316713
