17

C      -0.056077    1.525931    0.221144
N       0.011457    0.071106    0.240652
C      -0.990730   -0.601021   -0.062724
O      -2.306088   -0.158120   -0.462513
C      -2.537417   -1.558373   -0.865697
C      -3.188170   -2.982670   -0.789566
N      -1.687697   -3.237686   -1.137412
C      -1.830054   -2.072989   -2.123824
C      -1.431052   -2.077882   -0.040451
H       0.763573    1.906648   -0.396731
H      -1.006096    1.920622   -0.154362
H       0.109600    1.899212    1.237483
H      -3.487022   -3.354587    0.190654
H      -3.856410   -3.307315   -1.590084
H      -2.429439   -2.317399   -3.002183
H      -0.873787   -1.617921   -2.388603
H      -1.611558   -2.452932    0.966355
