16

C      -0.212234    1.527118   -0.133313
C      -0.061675    0.003436   -0.105452
C       0.967101   -0.553833   -1.139167
O       1.930142   -0.820586   -0.037726
C       0.895574   -0.631278    0.838546
N       0.535414   -1.219233    1.898773
C      -0.929695   -0.996116    1.939439
C      -1.346924   -0.649232    0.466642
O      -2.407703   -0.836972   -0.052035
H       0.760860    2.009998   -0.262481
H      -0.864680    1.820525   -0.961538
H      -0.655318    1.904209    0.792945
H       0.702391   -1.493063   -1.628985
H       1.370690    0.170841   -1.847592
H      -1.437677   -1.903793    2.277425
H      -1.228180   -0.183540    2.615079
