17

O      -0.105498    1.401998    0.304965
C      -0.030044    0.022778    0.115910
C      -1.358406   -0.736329    0.038612
N      -2.048892   -0.114663   -1.123528
C      -1.067519   -1.211795   -1.341204
C       0.296456   -0.529386   -1.354988
N       0.520259    0.422466   -2.404263
C       1.734794    0.621741   -2.984614
O       2.740413   -0.008311   -2.735142
H      -0.875841    1.696273   -0.199218
H       0.669124   -0.377612    0.852241
H      -1.925350   -1.206018    0.832119
H      -2.984009   -0.512633   -1.182153
H      -1.365431   -2.127970   -1.835527
H       1.140456   -1.218054   -1.339072
H      -0.247262    1.027482   -2.651254
H       1.700503    1.433070   -3.738466
