19

C      -0.064622    1.448594   -0.076204
N      -0.012399    0.017226    0.127575
C      -1.229780   -0.671278    0.608761
C      -0.313965   -1.627313    1.423035
O       0.019028   -2.822783    0.744034
C       0.750154   -0.503068    1.283230
C      -0.770648   -1.946127    2.842779
N      -0.767736   -3.262183    3.161861
O      -1.105575   -1.055814    3.604330
H       0.931012    1.822014   -0.338624
H      -0.739078    1.680096   -0.907538
H      -0.415383    1.998992    0.816169
H      -1.850463   -0.058263    1.277584
H      -1.849691   -1.131644   -0.168567
H       0.299376   -2.579650   -0.145238
H       1.775033   -0.823843    1.066111
H       0.736270    0.161540    2.158695
H      -0.479754   -3.947031    2.484462
H      -1.059315   -3.538024    4.084156
