19

N      -0.030228    1.380800   -0.204896
C      -0.032697    0.133880    0.017419
C      -1.331970   -0.637730    0.093896
C      -1.632337   -1.185677    1.478702
N      -2.057078   -2.597228    1.551174
C      -0.740607   -2.205725    2.081833
C       0.495970   -2.654224    1.326907
C       1.473347   -1.497635    1.104586
O       1.142128   -0.579759    0.051936
H       0.935145    1.716703   -0.247828
H      -2.127828    0.033823   -0.233128
H      -1.285682   -1.475882   -0.607792
H      -2.105195   -0.480582    2.158414
H      -2.718790   -2.727871    2.311933
H      -0.627941   -2.171588    3.164252
H       1.018493   -3.436842    1.890316
H       0.213208   -3.092617    0.365839
H       1.607614   -0.933738    2.039197
H       2.451655   -1.884351    0.807697
