18

C       0.030602    1.555758    0.013863
C       0.065885    0.048743    0.045387
C      -0.854709   -0.741482    0.959055
C       0.634911   -0.834038    1.138591
C       1.399106   -1.942632    0.436850
C       0.725045   -2.989440   -0.376315
N       1.273901   -1.772301   -1.017331
C       0.368115   -0.680615   -1.254776
O      -0.030101   -0.370436   -2.344775
H       1.010387    1.974510   -0.238467
H      -0.682110    1.894985   -0.744147
H      -0.275456    1.962174    0.982452
H      -1.396704   -0.151006    1.691094
H      -1.421272   -1.584190    0.580168
H       1.082250   -0.412831    2.030782
H       2.406177   -2.134456    0.796607
H       1.255482   -3.904048   -0.626535
H      -0.352928   -3.099545   -0.325326
