19

C       0.343762    1.585043   -0.265105
C       0.051539    0.109442   -0.025198
C       0.733287   -0.963305   -0.930527
C       1.377660   -1.630778    0.301158
C       2.739198   -0.999115    0.706303
C       1.991428   -0.171221    1.762585
O       2.316024    0.293835    2.823090
C       0.611241   -0.568285    1.260659
O      -0.348561   -0.790503    2.233696
H       1.420048    1.783236   -0.318304
H      -0.099824    1.920563   -1.208658
H      -0.071149    2.201968    0.538679
H      -1.030128   -0.051887    0.003556
H       0.014913   -1.596751   -1.455315
H       1.447515   -0.576467   -1.663829
H       1.289864   -2.707218    0.436955
H       3.465480   -1.677484    1.162361
H       3.243026   -0.426187   -0.077185
H       0.092993   -0.765012    3.092737
