15

O      -0.102231    0.191097    0.904919
C      -0.073497    1.135627    0.167416
C      -1.332582    1.813617   -0.352247
C      -1.123183    3.204410   -0.871036
C       0.076812    3.613866   -1.257172
C       1.273166    2.699817   -1.173495
O       1.130863    1.642785   -0.201533
C       1.603039    2.136679   -2.485812
C       1.866227    1.691671   -3.570045
H      -1.744394    1.167595   -1.140984
H      -2.062000    1.780109    0.461971
H      -1.986285    3.859960   -0.935255
H       0.257434    4.601028   -1.667513
H       2.139552    3.266674   -0.811809
H       2.103788    1.291820   -4.525215
