22

C      -0.050812    1.566364   -0.147716
C       0.027699    0.036503   -0.044770
C       0.743554   -0.548591   -1.270049
C       0.711683   -0.434095    1.252290
C      -0.030371   -0.072613    2.543146
C       0.658780   -0.655687    3.794321
C      -0.030507   -0.323065    5.035263
C      -0.618638   -0.034960    6.043397
H       0.952323    2.010030   -0.129817
H      -0.528689    1.869049   -1.085293
H      -0.625773    2.007970    0.671296
H      -1.000278   -0.354965   -0.037779
H       1.780604   -0.195510   -1.323162
H       0.767055   -1.642949   -1.235867
H       0.245898   -0.251986   -2.199242
H       0.829644   -1.525691    1.208378
H       1.731002   -0.021872    1.288424
H      -0.100365    1.013682    2.659440
H      -1.060348   -0.446907    2.499663
H       0.728746   -1.747328    3.697289
H       1.693585   -0.291208    3.843216
H      -1.129533    0.213219    6.940161
