17

C      -0.120577    1.505901    0.051198
C       0.111791    0.019871   -0.010816
N      -0.704594   -0.903315    0.844276
C       0.761416   -0.782977    1.049832
C       1.496561   -1.962015    0.400347
O       1.003403   -3.218879    0.833266
C       1.250040   -1.719353   -1.085213
C       0.484014   -0.651334   -1.303975
H       0.735499    2.052203   -0.358804
H      -1.005716    1.791318   -0.528879
H      -0.271378    1.840741    1.082636
H      -1.176589   -0.356257    1.563510
H       1.126770   -0.346660    1.972986
H       2.564027   -1.958516    0.648649
H       0.040285   -3.127467    0.797505
H       1.603386   -2.418134   -1.834725
H       0.128010   -0.303072   -2.267439
