15

C       0.086655    1.578707   -0.024501
C      -0.066881    0.064350    0.103910
N       0.640738   -0.463742    1.267282
N       1.982898   -0.480214    1.314784
C       2.234508   -0.996718    2.513434
N       1.140739   -1.313495    3.242969
C       0.149902   -0.964586    2.431034
C      -1.241169   -1.082309    2.693967
N      -2.382513   -1.159801    2.867558
H       1.141567    1.849717   -0.106572
H      -0.434335    1.924346   -0.921499
H      -0.341201    2.090809    0.841789
H      -1.115453   -0.221356    0.215715
H       0.334103   -0.445823   -0.775741
H       3.243562   -1.150191    2.864559
