19

C      -0.189199    1.591618   -0.102388
C      -0.035765    0.067561   -0.055343
O       0.609952   -0.225019    1.203142
C      -1.419282   -0.634731   -0.031314
O      -2.127541   -0.291173    1.135127
C       0.756086   -0.435581   -1.178403
C       1.387274   -0.877641   -2.106031
C       2.148407   -1.443433   -3.220241
O       1.478836   -2.501099   -3.890089
H       0.787160    2.069205   -0.001261
H      -0.640128    1.897676   -1.049308
H      -0.836719    1.910499    0.717030
H       0.996975   -1.104892    1.132520
H      -2.018440   -0.323968   -0.892359
H      -1.257443   -1.722779   -0.107480
H      -1.487419   -0.376759    1.854937
H       2.324138   -0.674279   -3.980366
H       3.139252   -1.758823   -2.855539
H       1.228526   -3.153092   -3.227283
