17

O       0.012937    0.687409   -1.366476
C      -0.037598    1.289773   -0.321952
C      -1.359695    1.853992    0.215527
N      -1.167668    2.424658    1.542888
C      -0.196605    3.485570    1.548476
C       0.962247    3.359295    2.505186
C       1.148161    3.015139    1.046402
C       1.180543    1.571569    0.554507
H      -1.741348    2.562362   -0.542446
H      -2.078124    1.028754    0.265162
H      -2.041614    2.691359    1.977172
H      -0.524380    4.488208    1.266074
H       1.426008    4.268154    2.872794
H       0.918523    2.542063    3.216563
H       1.717623    3.717375    0.447202
H       1.137900    0.878154    1.402858
H       2.082088    1.342452   -0.017154
