18

O       0.050146   -0.147553   -0.281637
C       0.015687    1.043669   -0.111490
C       1.232294    1.942906   -0.063756
C       1.230388    2.956260   -1.197268
C       0.237663    4.063219   -1.551815
N       1.268131    4.254783   -2.656722
C       2.397377    3.892816   -1.655642
C       2.991009    2.871162   -2.629335
C       1.470811    2.717351   -2.727201
H      -0.956060    1.575594    0.011719
H       1.221146    2.484282    0.893017
H       2.129538    1.317232   -0.099529
H      -0.751958    3.778549   -1.925277
H       0.158638    4.921466   -0.875199
H       2.884047    4.675558   -1.070013
H       3.486696    3.285136   -3.510751
H       3.552980    2.037611   -2.202343
H       0.866979    2.114245   -3.407633
