13

C      -0.012589    1.416345   -0.018228
N       0.030597   -0.032275    0.007732
N       0.168888   -0.737906   -1.136595
C       0.163695   -1.991403   -0.694279
O       0.281639   -3.017300   -1.537947
N       0.033152   -2.144285    0.641834
C      -0.048820   -0.882081    1.056866
C      -0.198668   -0.443496    2.398745
N      -0.320792   -0.047709    3.479356
H       0.914148    1.803398   -0.447467
H      -0.856781    1.747394   -0.627044
H      -0.127688    1.780841    1.003003
H       0.253434   -3.824745   -1.009713
