22

C      -0.085912    1.477837   -0.268459
C       0.048745   -0.021441   -0.086700
N       1.194807   -0.895399   -0.432192
C       2.497463   -0.266381   -0.002754
C       3.053900    0.908926   -0.790013
C       2.003695   -0.121851    1.470358
O       1.865446    1.155254    2.065543
C       0.692239   -0.761823    1.021137
C       0.032931   -1.886643    1.766971
H       0.643469    2.044953    0.304765
H      -0.012759    1.746758   -1.327976
H      -1.081332    1.779523    0.076412
H      -0.847936   -0.537614   -0.432013
H       3.230328   -1.079398   -0.046082
H       2.489074    1.830170   -0.651327
H       4.090671    1.102036   -0.491099
H       3.058419    0.666775   -1.858025
H       2.559341   -0.790129    2.141035
H       2.730635    1.433833    2.382281
H      -0.461064   -1.511656    2.671326
H      -0.723084   -2.375666    1.146352
H       0.761670   -2.645490    2.073163
