22

C       0.369323    1.593224    0.413160
C       0.117584    0.101382    0.130977
C       0.730092   -0.753998    1.247946
C      -1.412384   -0.165800    0.024943
C      -2.180105    0.185152    1.212187
C      -2.811480    0.474246    2.194177
N       0.662114   -0.421355   -1.139909
C       0.766406    0.403160   -2.334773
C       1.986978   -0.047639   -1.605054
H       1.437449    1.820100    0.477597
H      -0.077469    2.238379   -0.349447
H      -0.084184    1.863446    1.369912
H       0.271422   -0.519360    2.211913
H       0.581222   -1.816341    1.035425
H       1.806552   -0.570819    1.324296
H      -1.800204    0.391841   -0.837216
H      -1.549305   -1.227414   -0.209519
H      -3.376035    0.725584    3.057504
H       0.464624   -0.076799   -3.262151
H       0.527943    1.462632   -2.278020
H       2.544142    0.717437   -1.068415
H       2.596933   -0.861637   -1.988411
