18

C      -0.009167    1.447597    0.008087
N       0.030692    0.002019    0.014208
C       0.075197   -0.793449   -1.089389
O       0.074208   -0.194373   -2.311419
C       0.116335   -2.116649   -0.711726
C       0.096764   -2.105178    0.717255
O       0.118440   -3.189038    1.555334
C       0.046569   -0.808646    1.160041
C       0.009425   -0.262779    2.544685
H       0.886655    1.872456    0.475053
H      -0.061282    1.792160   -1.024310
H      -0.887903    1.817566    0.546997
H       0.072745   -0.883848   -2.981207
H       0.153599   -2.975085   -1.365523
H       0.189453   -3.983442    1.020099
H       0.861676    0.392719    2.770669
H      -0.903263    0.311223    2.756619
H       0.041929   -1.097407    3.248873
