13

N       0.119476    1.278287   -0.696904
C      -0.004977    0.019834   -0.193971
N       1.174004   -0.662090   -0.017517
N      -1.102584   -0.601281    0.135490
C      -2.310268    0.004198    0.127597
N      -3.419662   -0.605263    0.495863
O      -4.392062    0.330917    0.341700
N      -3.841444    1.503597   -0.124478
N      -2.604250    1.322321   -0.256930
H       1.009034    1.741952   -0.613095
H      -0.710695    1.855899   -0.699164
H       1.928078   -0.460539   -0.655864
H       1.039341   -1.641048    0.184842
