16

O      -0.386551    0.068257   -0.011862
C      -0.199569    1.249948   -0.022473
N      -1.086143    2.344321    0.084331
C       0.011891    3.314455    0.037109
C       1.027668    3.047339    1.104425
C       1.005176    2.180614   -0.158237
C       2.179408    2.029600   -1.095619
C       3.198782    1.112759   -0.591043
C       4.036265    0.364508   -0.165344
H      -1.829240    2.377136    0.774142
H      -0.083405    4.231539   -0.529290
H       1.872615    3.729197    1.159622
H       0.716511    2.635650    2.060061
H       1.823365    1.680494   -2.072962
H       2.630679    3.015347   -1.268597
H       4.770510   -0.306860    0.205447
