16

O       0.067921    1.407445   -0.070156
C      -0.016187    0.025142   -0.023435
C      -0.441153   -0.690768    1.236034
C      -0.891754    0.137658    2.373059
C      -1.977557    0.918236    2.265935
N      -2.778160    0.934991    1.130229
C      -2.624953    0.096310    0.033497
O      -3.489122    0.017514   -0.815644
C      -1.360129   -0.687672   -0.005240
H      -0.085049    1.742247    0.824518
H       0.749753   -0.451160   -0.627980
H       0.073183   -1.615661    1.475658
H      -0.324944    0.131157    3.295347
H      -2.312854    1.565874    3.067471
H      -3.642862    1.454796    1.136180
H      -1.446076   -1.587620   -0.601864
