21

O       0.165026    1.345939    0.281670
C       0.004357    0.020041   -0.202585
C      -1.417430   -0.483831   -0.057488
C      -1.772597   -1.115669    1.280212
C      -1.613341   -1.977576    0.051184
O      -2.752329   -2.596329   -0.473051
C      -3.399505   -1.886336   -1.521279
C      -3.747747   -0.464124   -1.091643
C      -2.457422    0.324943   -0.824975
H      -0.119789    1.349992    1.202044
H       0.286532    0.061834   -1.261138
H       0.701444   -0.673274    0.295520
H      -1.008655   -1.161721    2.051015
H      -2.784503   -1.002704    1.653334
H      -0.734454   -2.616732   -0.013796
H      -2.763710   -1.862355   -2.422231
H      -4.294693   -2.468894   -1.755784
H      -4.336389    0.032347   -1.870691
H      -4.377044   -0.513497   -0.195197
H      -2.665990    1.267636   -0.309037
H      -2.014365    0.599382   -1.791861
