19

C      -0.158021    1.558797    0.061489
C      -0.071655    0.031924    0.016342
C       0.831920   -0.543343    1.124737
C       0.914876   -2.030398    1.115548
C       1.929076   -2.906664    0.866441
C       1.366084   -4.219779    0.997897
O       1.988602   -5.420276    0.845274
C       0.054479   -4.051554    1.314942
O      -0.227303   -2.712012    1.388861
H       0.829867    2.017166   -0.061337
H      -0.803964    1.943085   -0.733785
H      -0.565506    1.905116    1.017906
H      -1.071864   -0.403841    0.115996
H       0.311002   -0.294144   -0.958256
H       1.847176   -0.144782    1.020721
H       0.459813   -0.202622    2.100656
H       2.950189   -2.653265    0.622561
H       2.909165   -5.262013    0.618876
H      -0.755833   -4.730879    1.510445
