18

N      -0.003641    1.429363    0.027806
C       0.057908    0.023143    0.005685
C      -1.020469   -0.827395    0.131204
N      -0.527821   -2.128074    0.154594
C       0.835639   -2.098388    0.024527
C       1.231418   -0.784072   -0.063647
N      -2.368566   -0.446709    0.234468
C      -3.431138   -1.316585   -0.268896
C      -3.258273   -1.106493    1.195809
H       0.556390    1.848865   -0.705031
H      -0.965031    1.735213   -0.076551
H      -1.079278   -2.962764    0.234739
H       1.411443   -3.009585    0.005083
H       2.246823   -0.430860   -0.158832
H      -4.232182   -0.815411   -0.805720
H      -3.153757   -2.284615   -0.681274
H      -2.851583   -1.927982    1.781700
H      -3.931335   -0.449996    1.740268
