19

C      -0.059884    1.470498    0.115963
C       1.426211    1.580295   -0.342155
C       1.424472    0.063130   -0.664593
C       0.020645   -0.080448    0.069116
C      -0.540104   -0.785005   -1.217533
O      -1.674325   -0.370616   -1.953423
C      -1.204745   -0.020575   -3.271977
C       0.287568    0.252442   -3.112775
C       0.652851   -0.256045   -1.941570
H      -0.272236    1.887702    1.101744
H      -0.785542    1.874145   -0.593570
H       1.654179    2.258076   -1.168457
H       2.094229    1.808954    0.493409
H       2.297366   -0.541356   -0.416764
H      -0.100546   -0.610893    1.014157
H      -0.557392   -1.874106   -1.050878
H      -1.428414   -0.835864   -3.979708
H      -1.748859    0.869658   -3.611582
H       0.848897    0.873178   -3.799886
