16

O      -0.084165    1.399993    0.004042
C      -0.031280   -0.013228    0.018433
C       0.475252   -0.622265    1.381029
C      -0.805912   -1.347622    1.839906
C      -1.253605   -2.027480    0.500701
C      -1.467572   -0.560104   -0.003309
C      -1.886073   -0.312174    1.462741
O      -2.774715    0.250190    2.025598
H       0.816428    1.738480    0.027137
H       0.548948   -0.390390   -0.834685
H       1.310625   -1.315905    1.249030
H       0.783380    0.174121    2.063968
H      -0.804504   -1.864418    2.797114
H      -0.491042   -2.612654   -0.019455
H      -2.183816   -2.591174    0.582136
H      -2.094663   -0.300414   -0.852453
