17

C       0.008381    1.556956    0.027696
C       1.544878    1.542860    0.035087
N       2.075724    0.845689   -1.137584
C       1.569144    0.039326   -0.046979
C       2.337082   -1.043555    0.640221
N       1.604849   -1.598071    1.776980
C       0.378477   -1.334097    1.920272
O      -0.473054   -0.581362    1.168207
C       0.037036   -0.000417   -0.034464
H      -0.439700    1.886809    0.966909
H      -0.464618    2.084801   -0.806703
H       2.203658    2.225390    0.559486
H       1.454207    0.882189   -1.945049
H       2.550214   -1.862110   -0.061712
H       3.310715   -0.681995    0.988059
H      -0.173166   -1.736736    2.767939
H      -0.461957   -0.490670   -0.878459
