16

C      -0.339035    1.482001   -0.050189
C      -0.008336    0.008028   -0.071350
C       0.606620   -0.739754   -1.184210
C       1.669194    0.073172   -1.921207
C       2.389420    0.194500   -0.547567
C       2.724057    1.509212   -0.009753
N       3.013304    2.548023    0.407674
N       1.323545   -0.607291    0.167344
H       0.287141    2.085097   -0.709133
H      -1.379299    1.614301   -0.366090
H      -0.240553    1.886478    0.961445
H      -0.732668   -0.587074    0.482592
H       0.232421   -1.699878   -1.523770
H       2.252826   -0.504683   -2.637880
H       1.335739    0.997269   -2.398326
H       3.301924   -0.406834   -0.530173
