21

C       0.069229    1.427095    0.036927
C      -0.000018   -0.082749    0.033409
C      -1.321583   -0.751641   -0.367493
C      -1.325284   -2.101603    0.397436
C       0.145206   -2.300345    0.784121
C       0.689227   -0.876982    1.108685
C       1.293079   -0.820126   -0.296012
C       1.070201   -2.320664   -0.478923
O       2.250052   -3.084389   -0.326548
H       1.044215    1.783514    0.384734
H      -0.092612    1.833907   -0.968007
H      -0.697772    1.853446    0.693778
H      -2.169631   -0.122220   -0.077775
H      -1.390234   -0.892437   -1.452045
H      -1.946028   -2.030094    1.297381
H      -1.711486   -2.931066   -0.203901
H       0.343519   -3.113161    1.483975
H       1.045985   -0.480797    2.051201
H       2.165567   -0.279289   -0.650107
H       0.619153   -2.672223   -1.413687
H       2.716754   -2.741544    0.444797
