23

C       0.002572    1.540436   -0.076694
C      -0.002232    0.043319    0.001244
C       0.481132   -1.023136   -0.969553
C       1.226652   -1.763258    0.137374
C       0.491856   -0.860083    1.189160
C       1.355188   -0.239546    2.270070
C      -0.777133   -1.572525    1.690062
C      -1.597058   -1.855519    0.403631
C      -0.997474   -0.894416   -0.622490
H       0.996195    1.958161    0.123864
H      -0.299856    1.877989   -1.073939
H      -0.693764    1.986338    0.644434
H       0.820792   -0.900387   -1.992779
H       1.083989   -2.847640    0.224382
H       2.300062   -1.553602    0.111378
H       2.216742    0.286502    1.844814
H       0.787210    0.480032    2.871442
H       1.741086   -1.007194    2.951016
H      -0.544462   -2.481422    2.256190
H      -1.333597   -0.904315    2.359321
H      -1.508485   -2.899961    0.084280
H      -2.663697   -1.661038    0.552310
H      -1.622483   -0.515308   -1.424966
