16

C      -0.188670    1.113469   -1.180076
C       0.126390   -0.295097   -0.742538
C       1.074330   -1.147235   -1.521333
N       1.449963   -0.647972   -0.203234
C       2.460250    0.263151   -0.034025
C       2.609249    1.313537    0.839081
N       3.863484    1.813485    0.636744
N       4.484177    1.186017   -0.251585
O       3.576941    0.131689   -0.738852
H       0.634201    1.553859   -1.749583
H      -1.080804    1.109550   -1.814083
H      -0.390718    1.761255   -0.321015
H      -0.676191   -0.802055   -0.211135
H       0.931399   -2.221809   -1.581169
H       1.562998   -0.696906   -2.381399
H       1.932953    1.712684    1.573537
