20

C       0.034907    1.798612   -0.436119
C      -0.095173    0.391412    0.154082
O      -1.430775    0.224829    0.535020
C      -1.720680   -0.877052    1.396003
C      -3.018776   -1.515224    0.923216
O      -2.871763   -2.212092   -0.287674
C       0.308523   -0.657478   -0.908269
N       1.647658   -0.837691   -1.054742
O      -0.508027   -1.249278   -1.591328
H       1.058457    1.999836   -0.763452
H      -0.634250    1.897502   -1.294892
H      -0.250517    2.538308    0.315410
H       0.579345    0.292600    1.022049
H      -0.917167   -1.624890    1.362688
H      -1.815003   -0.513264    2.430245
H      -3.359987   -2.232701    1.680508
H      -3.781863   -0.720580    0.856509
H      -2.272814   -1.701805   -0.857196
H       2.320598   -0.387487   -0.459651
H       1.974512   -1.485010   -1.753693
