11

O      -0.018837   -0.024446    0.002639
C      -0.045899    1.172300    0.009569
N      -1.108107    2.043691    0.029259
C      -0.657490    3.374138    0.030471
C       0.688741    3.292518    0.011180
O       1.086451    1.985577   -0.001560
C      -1.515284    4.487075    0.048690
C      -2.273817    5.422060    0.064513
H      -2.065658    1.739561    0.040947
H       1.454125    4.047910    0.004719
H      -2.932554    6.255224    0.078373
