19

O      -0.089960   -0.070576   -0.053588
C       0.005328    1.128085   -0.093670
C       1.308200    1.896427   -0.099085
C       1.385863    2.879259   -1.277917
C       2.638905    3.742847   -1.226361
O       2.618452    4.614542   -2.336832
C       3.756256    5.453199   -2.389416
C       3.677676    6.328361   -3.551191
C       3.638398    7.061607   -4.501067
H      -0.903657    1.774425   -0.132124
H       1.356633    2.459210    0.845532
H       2.134331    1.179303   -0.106939
H       1.373922    2.332249   -2.226920
H       0.508896    3.537354   -1.280711
H       2.670042    4.317821   -0.283924
H       3.543755    3.111060   -1.247589
H       3.830292    6.061373   -1.471232
H       4.678639    4.849242   -2.441167
H       3.597741    7.707040   -5.343434
