17

C       0.315378    0.661570    0.511362
O      -0.286940    0.276090   -0.714615
C       0.483731   -0.556686   -1.530728
C       0.494259   -2.045019   -1.128681
O       1.344554   -2.180805    0.035953
C       1.858010   -3.405867    0.281414
O       2.551530   -3.629922    1.225480
C      -0.837951   -2.579202   -0.869284
C      -1.929051   -3.036512   -0.663690
H       0.403038   -0.174972    1.212190
H       1.316900    1.085051    0.345577
H      -0.328644    1.431207    0.942762
H       0.047985   -0.496921   -2.533719
H       1.532251   -0.223722   -1.582480
H       0.956654   -2.598007   -1.959471
H       1.575039   -4.153798   -0.483477
H      -2.896921   -3.433633   -0.477914
