23

C       0.040630    1.485364   -0.098324
C       0.012438   -0.032057    0.026926
C      -1.201952   -0.622321   -0.675218
C       1.315279   -0.791973   -0.035970
C       0.570796   -0.713159    1.281331
C       1.168154    0.135263    2.384944
O       2.146130   -0.655622    3.078062
C      -0.053724   -1.994538    1.830700
O       0.908387   -2.976946    2.169281
H       0.959290    1.932421    0.286392
H      -0.036521    1.769527   -1.154231
H      -0.805350    1.946908    0.425259
H      -1.250186   -0.244939   -1.703257
H      -1.172640   -1.711435   -0.735553
H      -2.135777   -0.334609   -0.177361
H       1.332787   -1.754279   -0.537150
H       2.239214   -0.229077   -0.128975
H       1.642344    1.041125    1.991021
H       0.376015    0.446808    3.083587
H       2.372266   -0.210859    3.900035
H      -0.680009   -1.734598    2.702891
H      -0.714537   -2.462744    1.099010
H       1.572513   -2.517152    2.699783
