18

N      -0.214947    1.065148   -0.895424
C      -0.167547   -0.172439   -0.245906
C      -0.881602   -0.614242    0.841058
N      -0.486051   -1.938944    1.001915
C       0.419483   -2.224903    0.032897
N       0.634706   -1.172064   -0.737519
C       1.058835   -3.543282   -0.109405
C       1.374519   -4.067976   -1.497199
C       2.491627   -3.624602   -0.600094
H       0.618336    1.203622   -1.452684
H      -0.347520    1.845303   -0.266054
H      -1.608364   -0.149179    1.483835
H      -0.812805   -2.570252    1.713008
H       0.753501   -4.274948    0.632368
H       1.240652   -5.128649   -1.678791
H       1.106054   -3.416907   -2.320704
H       2.968422   -2.678152   -0.825999
H       3.135184   -4.376721   -0.157245
