20

C      -0.392450    1.564495    0.306175
C      -0.152156    0.063947    0.213344
C       0.305514   -0.489104   -1.144648
O       1.596862    0.078299   -1.420989
C       1.525031   -1.081787   -0.571263
C       2.341310   -2.276336   -0.945078
C       1.165989   -0.565291    0.838906
C       2.182681    0.332900    1.530915
H       0.435801    2.118627   -0.142284
H      -1.310970    1.843111   -0.222385
H      -0.499772    1.888545    1.346724
H      -1.026681   -0.485984    0.576796
H      -0.291001   -0.786549   -2.001373
H       2.275871   -2.463425   -2.020310
H       3.396718   -2.124110   -0.691304
H       1.993824   -3.166770   -0.410848
H       0.893470   -1.402178    1.491215
H       2.536160    1.114999    0.854174
H       1.752845    0.813499    2.416008
H       3.052036   -0.246311    1.861859
