24

C      -1.759009    0.759481    1.116839
O      -1.403236   -0.214025    0.162794
C      -0.109337   -0.825971    0.288792
C       1.018511    0.214657    0.155992
C       0.034249   -1.580746    1.616748
C      -0.049029   -1.709690   -0.958525
N       0.919901   -2.809844   -1.019618
C      -0.516284   -3.108177   -1.173769
C      -1.174231   -4.038470   -0.181259
H      -1.767423    0.365889    2.143097
H      -1.104337    1.642186    1.091152
H      -2.773725    1.080640    0.866012
H       1.055669    0.889619    1.015500
H       1.982648   -0.298764    0.094425
H       0.884979    0.814421   -0.749656
H      -0.879163   -2.131110    1.850927
H       0.867304   -2.284359    1.553206
H       0.236379   -0.889294    2.439873
H      -0.136637   -1.084361   -1.847742
H       1.404895   -2.825520   -1.911660
H      -0.856225   -3.281846   -2.195836
H      -0.672203   -4.022600    0.785141
H      -2.226369   -3.771484   -0.035969
H      -1.138940   -5.067045   -0.557143
