17

O       0.069334    1.332206    0.559227
C      -0.026367    0.146968   -0.223510
C      -1.377165   -0.389113   -0.151860
C      -2.488248   -0.856250   -0.104285
C      -3.804114   -1.381448   -0.064798
C      -4.525641   -1.795469    1.218436
C      -4.345315   -2.802720    0.139412
O      -5.331675   -2.654608   -0.874629
C      -4.841403   -1.325145   -1.192949
H       0.974656    1.651569    0.484902
H       0.223107    0.345952   -1.278870
H       0.682842   -0.620239    0.129222
H      -3.866420   -1.892643    2.074273
H      -5.518858   -1.407731    1.428442
H      -3.840810   -3.757520    0.231061
H      -5.622837   -0.560184   -1.121413
H      -4.386518   -1.311609   -2.188293
