19

O       0.149395    1.351686   -0.029251
C       0.083169   -0.064483    0.064160
C      -1.350288   -0.576069    0.069354
C      -2.193048   -0.457317   -1.257855
C      -2.371603   -1.983413   -1.224485
C      -3.465195   -2.831748   -1.789465
O      -3.410003   -2.885216   -3.206584
O      -1.041938   -2.543698   -1.265953
C      -1.556431   -2.100421   -0.001621
H      -0.180466    1.602632   -0.897975
H       0.642996   -0.552228   -0.745886
H       0.575853   -0.322738    1.008445
H      -1.897627   -0.139387    0.909939
H      -3.124323    0.096463   -1.121769
H      -1.673465   -0.083443   -2.144767
H      -3.407795   -3.834438   -1.339749
H      -4.441708   -2.403917   -1.539542
H      -2.547306   -3.246923   -3.438747
H      -1.579242   -2.829383    0.801443
