13

C      -0.033906    1.496549   -0.021743
C      -0.004274    0.002643   -0.050933
N      -0.026879   -0.644654   -1.173340
C       0.001979   -1.999701   -1.135282
F      -0.023108   -2.610563   -2.313570
C       0.052811   -2.707937    0.006882
O       0.077629   -2.063687    1.196197
C       0.051788   -0.682127    1.262563
O       0.074560   -0.141508    2.334860
H       0.851186    1.883617    0.494643
H      -0.075474    1.888533   -1.037946
H      -0.897951    1.847839    0.552574
H       0.077347   -3.785456    0.088005
