11

C       0.048984    1.366335    0.007151
O      -0.047644   -0.073275    0.002555
C      -1.265463   -0.550717    0.011037
N      -2.376115    0.100490    0.023021
O      -3.356221   -0.944704    0.027105
C      -2.736697   -2.145638    0.017350
O      -3.233467   -3.219558    0.016980
O      -1.366018   -1.892148    0.006535
H       1.115735    1.581889   -0.001706
H      -0.439295    1.777049   -0.879776
H      -0.423063    1.770245    0.905915
