13

O       0.039267   -0.060099    0.001912
C      -0.041145    1.137712    0.009526
C      -1.221384    2.046306    0.031559
C      -0.806021    3.332502    0.032407
C       0.646282    3.357920    0.011385
C       1.787389    4.115688   -0.001237
N       2.905779    3.291167   -0.021964
C       2.445159    2.062963   -0.021771
N       1.075066    2.046070   -0.001867
H      -2.231944    1.667830    0.044240
H      -1.431305    4.214310    0.046231
H       1.889664    5.189956    0.002996
H       3.036421    1.160293   -0.035210
