17

C       0.367434    1.563159    0.275939
O       1.471842    1.427238   -0.647658
C       1.294918   -0.002057   -0.711830
C       2.267343   -0.819528    0.124711
N       2.492233   -0.237063    1.464590
C       1.552179   -1.358890    1.319039
C       0.097284   -0.907345    1.305339
C      -0.015222    0.072146    0.119648
H       0.708662    1.848466    1.276471
H      -0.371687    2.286902   -0.087961
H       1.249665   -0.359303   -1.746626
H       3.077364   -1.362144   -0.351598
H       3.380811   -0.570868    1.828407
H       1.811572   -2.322504    1.747878
H      -0.554467   -1.773646    1.146770
H      -0.192724   -0.447894    2.256532
H      -0.935667   -0.070311   -0.448144
