18

C      -0.040698    1.681279   -0.062286
C       0.047396    0.160836   -0.050370
C      -1.352612   -0.510110   -0.031640
C      -2.119270   -0.198097    1.170860
N      -2.734776    0.061099    2.113655
C       0.887346   -0.436307   -1.197586
O       1.435512   -1.604652   -0.611202
C       1.747012   -1.219189    0.704745
O       0.771267   -0.270220    1.108054
H       0.961751    2.115190   -0.030413
H      -0.546563    2.034597   -0.967134
H      -0.599387    2.039902    0.805812
H      -1.931047   -0.192921   -0.907049
H      -1.218437   -1.594597   -0.098147
H       0.307494   -0.727989   -2.075695
H       1.676822    0.267948   -1.501124
H       1.708665   -2.103550    1.348518
H       2.746977   -0.755337    0.756262
