20

C      -0.015580    1.453223   -0.043622
N      -0.005274    0.013946   -0.016821
C      -1.077626   -0.991997   -0.048930
C      -1.803616   -1.140823   -1.392970
C      -0.778855   -1.837024   -2.312427
C      -0.040003   -2.820588   -1.379418
C       0.049894   -2.081852   -0.035657
C       1.032034   -0.885602   -0.010244
O       2.228104   -0.736892   -0.009471
H       1.024153    1.789930   -0.046950
H      -0.513137    1.841338   -0.941031
H      -0.519008    1.869973    0.837627
H      -1.744998   -0.938120    0.816967
H      -2.679539   -1.784335   -1.245937
H      -2.166706   -0.187392   -1.789682
H      -1.246618   -2.332748   -3.166752
H      -0.073859   -1.100950   -2.712987
H      -0.627901   -3.737337   -1.255022
H       0.944602   -3.110196   -1.756564
H       0.114327   -2.729796    0.839179
