15

O       0.008852    0.023065    0.162139
C       0.004720    1.215556    0.004148
C      -1.250543    2.090716   -0.194698
N      -0.813173    3.398042   -0.713796
C       0.639873    3.464074   -0.555616
C       1.150037    3.333148    0.845366
C       1.197295    2.116954   -0.070454
C       1.346824    4.268661   -1.511469
N       1.906852    4.910753   -2.293362
H      -1.945107    1.594494   -0.875873
H      -1.765797    2.195127    0.768735
H      -1.029687    3.462971   -1.701968
H       2.106910    3.785686    1.074005
H       0.420067    3.368448    1.646855
H       2.153058    1.710231   -0.372246
