23

C      -1.493020    0.006403   -0.170771
C       0.024249   -0.103378    0.034666
C       0.776053   -0.667833   -1.166549
C       2.084427   -1.390051   -0.877521
C       0.851310   -2.163537   -1.286490
O       0.149513   -2.919325   -0.337969
C       0.665937    0.132463   -2.472295
C       1.166374    1.571951   -2.336937
O       1.321295   -0.521134   -3.560023
H      -1.756389    0.706881   -0.970105
H      -1.916834   -0.970220   -0.421778
H      -1.978857    0.360459    0.743979
H       0.438543    0.876975    0.300067
H       0.209579   -0.759185    0.889090
H       2.904787   -1.332818   -1.585885
H       2.389903   -1.449291    0.162015
H       0.847383   -2.569056   -2.295694
H       0.649028   -3.726036   -0.176289
H      -0.388622    0.150447   -2.771192
H       0.567414    2.147214   -1.625952
H       2.205997    1.589410   -1.986286
H       1.118511    2.072083   -3.308314
H       2.262478   -0.328662   -3.492830
