10

C      -0.034898    1.552595   -0.085077
C       1.493492    1.454597    0.101147
O       1.427259    0.023490    0.272549
C      -0.006348    0.022365    0.109446
H      -0.565792    2.113017    0.685915
H      -0.366284    1.893934   -1.066923
H       2.100317    1.735257   -0.768983
H       1.900231    1.955066    0.988967
H      -0.519878   -0.355952    1.002359
H      -0.319701   -0.575674   -0.755593
