17

O       0.260878    1.094218   -0.347683
C      -0.021310   -0.225278    0.094576
C      -1.536918   -0.536243    0.068282
C      -2.175034   -0.003022   -1.265444
O      -1.384539   -0.288102   -2.389399
C      -1.763953   -2.053719    0.142561
O      -0.886583   -2.872720    0.132731
C      -2.234905    0.081943    1.190550
C      -2.814098    0.607618    2.104946
H      -0.120855    1.710185    0.287776
H       0.478539   -0.899860   -0.600938
H       0.380207   -0.415762    1.096352
H      -3.147399   -0.484137   -1.415489
H      -2.352742    1.071910   -1.145240
H      -0.630717    0.313580   -2.349916
H      -2.836929   -2.340232    0.200176
H      -3.324569    1.062274    2.918350
