17

C      -0.788605    0.004763   -0.899628
C      -0.039057    0.407911   -0.048928
C       0.905218    0.880482    0.968470
N       1.791139    2.003019    0.624242
C       1.967160    2.433826   -0.755973
C       1.280538    3.311833    0.235221
C      -0.205133    3.624142    0.086936
C      -0.853326    3.852573    1.379910
N      -1.350962    4.023796    2.408829
H      -1.459785   -0.361937   -1.637187
H       0.361790    1.154487    1.880042
H       1.558044    0.041975    1.239729
H       2.989660    2.636587   -1.063153
H       1.340356    1.970927   -1.515985
H       1.841127    4.130596    0.683007
H      -0.321181    4.528236   -0.522385
H      -0.729042    2.815124   -0.428440
