12

N      -0.151017    1.310043    0.303409
C      -0.067122   -0.024341    0.067528
C      -1.038408   -0.951196   -0.248185
O      -2.352493   -0.704035   -0.524144
C      -3.288846   -1.337361    0.260074
O      -4.451988   -1.200417    0.066494
N      -0.437631   -2.162298   -0.329342
N       0.789030   -2.097862   -0.088871
O       1.085385   -0.649527    0.177619
H       0.705262    1.836506    0.224501
H      -0.972673    1.769404   -0.058720
H      -2.819828   -1.957223    1.042286
