19

C      -0.108294    1.444929    0.089233
C       0.088154   -0.070691   -0.003137
C       0.707372   -0.482236   -1.329316
O       0.850015   -1.910571   -1.320380
C       1.399112   -2.442830   -2.443306
O       1.756533   -1.797459   -3.404871
N       1.480620   -3.794505   -2.314430
C       2.025950   -4.640448   -3.352570
H       0.844774    1.977073   -0.002419
H      -0.769155    1.810655   -0.704132
H      -0.553983    1.724112    1.048073
H       0.731886   -0.419507    0.812753
H      -0.872743   -0.584958    0.114936
H       0.079104   -0.185422   -2.176456
H       1.689846   -0.020135   -1.475963
H       1.144706   -4.195953   -1.455601
H       2.322355   -3.993221   -4.178866
H       2.905926   -5.192463   -3.002268
H       1.284417   -5.361349   -3.716128
