19

O       0.072209    1.447414   -0.114110
C       0.015115    0.026848    0.009119
C       0.742884   -0.471403    1.262830
C       0.045297    0.017218    2.541492
C      -1.450603   -0.147335    2.469210
C      -2.112303   -0.380684    1.332398
C      -1.429084   -0.459137    0.018241
C      -2.196077   -0.411349   -1.234970
O      -1.696319   -1.656234   -0.749978
H      -0.504505    1.825831    0.558444
H       0.500853   -0.363872   -0.889453
H       0.743465   -1.567869    1.242670
H       1.783927   -0.136915    1.239557
H       0.431495   -0.524762    3.412578
H       0.292835    1.072224    2.731073
H      -2.003071   -0.072846    3.402897
H      -3.188972   -0.527071    1.335106
H      -3.279333   -0.297196   -1.201430
H      -1.715286   -0.024176   -2.132432
