14

N       0.061795    1.335218    0.297406
C       0.000520   -0.008939    0.005434
N      -1.146795   -0.699780    0.058381
N      -0.650425   -1.964168   -0.115140
C      -0.886205   -3.278048   -0.753469
C       0.688227   -3.357808   -0.899808
C       0.657551   -1.935882   -0.360116
N       1.154164   -0.718577   -0.290502
H       0.845377    1.801586   -0.134792
H      -0.814751    1.821577    0.179898
H      -1.374068   -4.010038   -0.106147
H      -1.409252   -3.206195   -1.710374
H       1.181663   -4.106050   -0.276782
H       1.035253   -3.451231   -1.930546
