22

C      -0.111716    1.603299   -0.118680
C      -0.068301    0.075363   -0.206038
C      -1.357401   -0.579695    0.312046
C      -1.404089   -2.090036    0.134086
C      -0.387989   -2.888816    0.940197
C      -0.447811   -4.407617    0.759909
C      -2.662399   -2.698359   -0.328135
O      -1.570983   -2.506740   -1.233837
H       0.813876    2.049923   -0.494881
H      -0.941240    2.010295   -0.707577
H      -0.246393    1.938699    0.916012
H       0.085740   -0.234439   -1.246338
H       0.795593   -0.292759    0.359778
H      -1.495162   -0.339825    1.375420
H      -2.211009   -0.143731   -0.220165
H       0.612025   -2.537418    0.658549
H      -0.511629   -2.626850    1.999149
H      -1.346856   -4.838174    1.211576
H      -0.440244   -4.666393   -0.302408
H       0.415592   -4.882761    1.234195
H      -2.897071   -3.735326   -0.098188
H      -3.529515   -2.061418   -0.501431
