20

N      -0.260017    1.278285    0.345720
C      -0.006688    0.072386    0.067531
O       1.241158   -0.438357   -0.056113
C       1.384318   -1.669258   -0.789094
C       1.292399   -1.474850   -2.306441
C       0.059319   -0.734250   -2.867877
C      -1.328898   -1.275182   -2.461365
C      -1.885497   -0.653916   -1.179616
O      -0.981886   -0.854763   -0.082039
H       0.607392    1.809905    0.397845
H       2.380674   -2.030843   -0.523438
H       0.647960   -2.391120   -0.433144
H       2.186231   -0.938417   -2.646260
H       1.346728   -2.477526   -2.752231
H       0.120486    0.328964   -2.606745
H       0.145678   -0.771283   -3.959136
H      -2.051672   -1.066187   -3.259673
H      -1.294453   -2.366798   -2.355573
H      -2.060110    0.420880   -1.295662
H      -2.824046   -1.130905   -0.886116
