22

C      -0.010159    1.645386    0.242797
C      -0.078429    0.122717    0.379843
C      -1.288195   -0.480496   -0.348871
C      -1.376484   -1.983822   -0.191601
N      -1.686002   -2.523526    1.156092
C      -2.653253   -2.741086    0.091993
C      -4.002965   -2.075124    0.207445
C      -0.403487   -2.790927   -0.983251
O       0.362571   -2.355603   -1.805474
H       0.856355    2.053065    0.772642
H       0.071004    1.946256   -0.807650
H      -0.906579    2.122591    0.655184
H       0.838812   -0.323922   -0.019314
H      -0.134274   -0.155773    1.438714
H      -2.204728   -0.013889    0.023486
H      -1.222301   -0.255869   -1.419647
H      -1.142893   -3.365343    1.344719
H      -2.692199   -3.744842   -0.334489
H      -3.931624   -1.116006    0.722750
H      -4.445346   -1.915205   -0.781038
H      -4.682805   -2.712637    0.782545
H      -0.435016   -3.883595   -0.742323
