16

N      -0.052872    1.411638   -0.113720
C       0.010686    0.027557   -0.044494
C      -1.185525   -0.711703   -0.044830
C      -1.169642   -2.095579   -0.017732
C       0.039766   -2.799351    0.015479
C       1.222794   -2.085695    0.011401
C       1.236719   -0.681343   -0.026074
C       2.542564   -0.004669   -0.069220
O       3.615435   -0.567659   -0.011380
H       0.713662    1.933066    0.278804
H      -0.948161    1.810872    0.123210
H      -2.131750   -0.178430   -0.062933
H      -2.111531   -2.635162   -0.015718
H       0.045901   -3.882735    0.040941
H       2.185486   -2.584540    0.030449
H       2.514637    1.102183   -0.178895
