18

O      -0.256210    1.364052   -0.060348
C       0.011133   -0.025613   -0.010210
C       0.615519   -0.573728   -1.314804
C      -0.301007   -0.331531   -2.520748
C       0.350280   -0.760121   -3.812806
C       0.189885   -0.003641   -5.059862
O       1.396072    0.087649   -4.298652
C       0.877064   -0.357280    1.141535
N       1.577975   -0.599291    2.027779
H       0.582678    1.828713   -0.165550
H      -0.964254   -0.495552    0.162835
H       1.585018   -0.090660   -1.487328
H       0.815473   -1.644123   -1.187131
H      -1.242839   -0.881413   -2.391247
H      -0.551909    0.731801   -2.575641
H       0.578751   -1.825077   -3.893696
H       0.278964   -0.511188   -6.019189
H      -0.428161    0.893413   -5.064919
