17

C      -0.085927   -1.232232   -0.004330
C      -0.071897   -0.030540    0.002520
C      -0.020731    1.425714    0.010454
C       1.421154    1.970033   -0.000801
C       1.446832    3.512627    0.007941
C       2.794635    4.057772   -0.002286
C       3.923468    4.494285   -0.011230
C       5.192633    4.985039   -0.021433
C       6.318811    5.420945   -0.030478
H      -0.109537   -2.293690   -0.010447
H      -0.566605    1.815831   -0.859057
H      -0.549061    1.805649    0.895176
H       1.963594    1.589750    0.869766
H       1.946021    1.599985   -0.886420
H       0.893923    3.893882   -0.861780
H       0.911439    3.883651    0.892909
H       7.309108    5.803240   -0.038407
