15

O       0.157836    1.445043    0.005720
C       0.088075    0.034562   -0.046222
C       0.512378   -0.618583    1.323597
N      -0.708360   -0.551605    2.194008
C      -1.637046   -0.557736    1.336392
O      -2.934769   -0.133719    1.299502
C      -2.712735    0.242475   -0.127417
C      -1.359568   -0.517799   -0.124484
H      -0.156171    1.726985    0.873342
H       0.718353   -0.271663   -0.884467
H       0.857172   -1.652207    1.192054
H       1.322898   -0.050109    1.788077
H      -3.505154   -0.160929   -0.757987
H      -2.638665    1.327969   -0.213102
H      -1.409465   -1.478060   -0.642205
