25

C      -0.169223    1.597116    0.081678
C      -0.162644    0.066794    0.109065
C       0.852117   -0.505630    1.117944
C       0.877100   -2.004436    1.169401
C       1.891610   -2.805147    0.834703
C       1.566257   -4.276089    0.973877
C       2.675368   -5.118197    1.614119
C       0.250069   -4.239715    1.796893
C      -0.331815   -2.821829    1.590906
H       0.814780    1.992735   -0.193997
H      -0.896455    1.980651   -0.640836
H      -0.426092    2.009006    1.064112
H      -1.167269   -0.298953    0.354123
H       0.070095   -0.323198   -0.889531
H       1.853536   -0.130070    0.874135
H       0.605736   -0.110304    2.115179
H       2.854133   -2.458493    0.469080
H       1.365749   -4.694557   -0.025728
H       2.928131   -4.736890    2.609900
H       2.364611   -6.163198    1.722111
H       3.587898   -5.104236    1.008189
H      -0.446906   -5.035620    1.519788
H       0.495372   -4.380092    2.856193
H      -0.816400   -2.426277    2.492292
H      -1.099585   -2.809760    0.804108
