18

C       0.005708    1.497936    0.073996
C      -0.020777    0.002752   -0.021748
C      -0.981715   -0.891288    0.787398
C       0.501215   -1.055776    0.897424
N       0.443362   -2.064728   -0.259086
C      -1.065269   -2.191469   -0.054993
C      -1.660851   -2.022616   -1.423121
C      -0.828012   -1.252211   -2.131011
C       0.328193   -0.902888   -1.239938
H       0.971285    1.899538   -0.254294
H      -0.774307    1.948997   -0.550508
H      -0.159231    1.835506    1.102668
H      -1.688787   -0.472669    1.493062
H       1.207834   -1.080960    1.714828
H      -1.340698   -3.084179    0.508311
H      -2.624856   -2.407497   -1.731270
H      -0.971518   -0.879536   -3.137416
H       1.278658   -0.659763   -1.719158
