16

O      -0.011581    0.065657   -0.347397
C       0.056651    1.213024   -0.036991
O      -0.940704    2.018284    0.461964
C      -0.059914    3.193094    0.508313
C       1.080082    2.325138   -0.002318
C       2.511721    2.309327    0.359551
C       3.204196    1.056025   -0.170247
C       2.658187    1.468687   -1.564278
N       2.051130    2.745760   -1.014827
H      -0.402798    3.966813   -0.180627
H       0.021146    3.574849    1.527905
H       2.908493    3.016894    1.081647
H       4.291626    1.113490   -0.104174
H       2.865027    0.103320    0.240895
H       3.433033    1.727926   -2.286531
H       1.928951    0.800798   -2.025751
