17

C      -0.016945    1.530362   -0.025847
C      -0.016711   -0.020338   -0.012111
C       0.757615   -0.538408    1.227461
C      -1.391072   -0.517311    0.016907
C      -2.527152   -0.900416    0.086769
C       0.692720   -0.528274   -1.290407
O       0.162683   -1.227253   -2.120161
C       2.078893   -0.107365   -1.449701
C       3.225385    0.223506   -1.610173
H       1.006254    1.913483   -0.059786
H      -0.566323    1.912817   -0.889841
H      -0.501288    1.902434    0.880502
H       0.275228   -0.172281    2.137266
H       0.760769   -1.630976    1.257041
H       1.790972   -0.182418    1.210268
H      -3.529199   -1.249516    0.129857
H       4.238074    0.508256   -1.764556
