18

O       0.102590    1.398259   -0.105078
C       0.022122   -0.016264   -0.174748
C      -1.392567   -0.537650    0.115741
C      -1.473166   -2.028916    0.040839
C      -1.636987   -2.870560   -1.190297
C      -2.597983   -3.041139   -0.027410
C      -1.866157   -3.739088    1.110447
O      -0.774220   -2.781684    1.049782
H      -0.036927    1.655305    0.811843
H       0.311507   -0.283029   -1.196337
H       0.739971   -0.498223    0.504562
H      -1.700108   -0.209585    1.117997
H      -2.091937   -0.095327   -0.602140
H      -2.060641   -2.364610   -2.052545
H      -0.906376   -3.641894   -1.419712
H      -3.667472   -2.905327   -0.115647
H      -2.381261   -3.672487    2.075552
H      -1.526619   -4.768508    0.943267
