21

C      -0.085588    1.573489   -0.044096
C       0.040087    0.047104    0.026856
C       0.794707   -0.569544   -1.177304
C       1.534870   -1.802821   -0.617930
C       1.629074   -1.494372    0.867927
C       2.450251   -2.253775    1.735772
C       3.166608   -2.922300    2.439327
C       0.812539   -0.483178    1.223264
C       0.595872    0.036607    2.606966
H       0.902459    2.047215   -0.057726
H      -0.613447    1.873561   -0.955281
H      -0.642212    1.976076    0.808073
H      -0.980987   -0.366864    0.076789
H       0.131714   -0.809879   -2.012756
H       1.526843    0.159430   -1.543589
H       0.967754   -2.730443   -0.773788
H       2.516200   -1.957844   -1.077200
H       3.792890   -3.506268    3.066707
H       1.190894   -0.517727    3.336143
H       0.859504    1.098631    2.682453
H      -0.461775   -0.040765    2.892586
