21

O      -0.079093    1.398797    0.013973
C      -0.035698   -0.023762    0.005791
C      -1.452506   -0.546715    0.009865
C      -2.357673   -0.139758   -1.183556
C      -3.608140   -0.889851   -0.740474
C      -3.138596   -2.123388    0.009292
C      -1.614071   -2.089500    0.001947
C      -3.600628   -0.898430    0.777565
C      -2.345804   -0.153305    1.216691
H       0.824622    1.726630    0.010944
H       0.493863   -0.396566   -0.886686
H       0.502645   -0.406495    0.888765
H      -2.494916    0.943231   -1.242783
H      -1.960795   -0.494700   -2.141866
H      -4.530286   -0.881984   -1.306859
H      -3.702835   -3.046758    0.006870
H      -1.179160   -2.551190   -0.891897
H      -1.170371   -2.561251    0.886167
H      -4.517123   -0.897024    1.353101
H      -1.939487   -0.519021    2.166960
H      -2.482408    0.928938    1.289498
