18

C      -0.369656    1.450498    0.077665
C       0.066625   -0.011083    0.016619
C       0.968163   -0.375252   -1.188750
C       1.663059   -1.682407   -0.778108
C       1.845344   -1.565455    0.737746
O       2.610359   -2.204469    1.414785
C       0.882127   -0.495197    1.200672
N       0.715009    0.010826    2.363642
O       1.531404   -0.522939    3.339570
H       0.500554    2.112433    0.136057
H      -0.944270    1.717931   -0.814856
H      -0.989484    1.638100    0.957590
H      -0.833485   -0.643294   -0.041251
H       0.399063   -0.460429   -2.117608
H       1.714847    0.415188   -1.332323
H       1.015311   -2.549268   -0.967833
H       2.617660   -1.878728   -1.270546
H       1.275068   -0.016901    4.119580
