15

C       0.034721    1.515156    0.054439
C       0.043399    0.001092    0.050987
O       1.062644   -0.646777    0.074894
N      -1.198907   -0.667939    0.016804
C      -1.170111   -2.133446    0.029132
C      -1.010099   -2.676210    1.382604
N      -0.893189   -3.110752    2.445828
C      -2.443271   -0.047796   -0.041224
O      -3.486897   -0.648787   -0.086612
H       1.073278    1.841506    0.093549
H      -0.435202    1.919673   -0.846887
H      -0.499838    1.911082    0.922949
H      -2.117926   -2.479858   -0.386789
H      -0.337611   -2.471720   -0.589614
H      -2.379892    1.049473   -0.048418
