17

O      -0.581660    0.785965   -0.646742
C       0.154511    1.042221    0.270337
C       1.355410    1.963677    0.169008
C       1.430215    2.688032   -1.182827
O       2.517667    3.595880   -1.195013
C       2.322085    4.705279   -0.338309
C       1.854929    4.325369    1.057151
O       0.454261    4.044684    1.208444
C       1.377109    2.959742    1.315817
H      -0.004432    0.593905    1.278585
H       2.246527    1.326815    0.290200
H       1.605098    1.974091   -1.989191
H       0.479351    3.200796   -1.379928
H       3.289575    5.212761   -0.276642
H       1.592741    5.409382   -0.771263
H       2.277505    4.902235    1.879232
H       1.472405    2.541418    2.318676
