16

C       0.046571    1.341257   -0.012957
O      -0.022044   -0.083028   -0.042511
C      -1.260797   -0.640797   -0.010623
N      -2.340747    0.104212    0.044783
C      -3.531773   -0.522072    0.073388
C      -3.655943   -1.899355    0.046905
C      -2.497614   -2.683464   -0.012210
C      -1.269213   -2.052610   -0.042038
O      -0.109918   -2.753864   -0.099302
H       1.109003    1.586411   -0.045146
H      -0.471087    1.774855   -0.873212
H      -0.408201    1.735024    0.900347
H      -4.405908    0.120260    0.119132
H      -4.635042   -2.363261    0.071556
H      -2.539102   -3.766568   -0.035056
H       0.609613   -2.108873   -0.110685
