18

C      -0.006963   -1.137193   -0.075675
C       0.013084    0.064932   -0.017267
C       0.003385    1.496612    0.016222
C      -0.662552    2.444674    1.079521
C      -0.045348    3.404911    0.016464
C       1.217199    2.489561    0.030097
C      -0.611291    2.446977   -1.043867
C      -0.670366    2.384571   -2.506520
N      -1.909915    2.433543   -1.665137
H      -0.014602   -2.198248   -0.117215
H      -1.751699    2.411688    1.140313
H      -0.194272    2.445681    2.066744
H      -0.073951    4.492556    0.013681
H       1.805827    2.494954    0.950141
H       1.847524    2.493453   -0.861584
H      -0.505309    3.269471   -3.115022
H      -0.418530    1.443627   -2.989925
H      -2.324916    1.504970   -1.611748
