13

O       0.001953    1.415065   -0.277416
C       0.032740    0.036434   -0.068735
C       0.014556   -0.472045    1.404459
O      -1.246011   -1.142791    1.198224
C      -1.393274   -0.618783   -0.128453
C      -2.501287    0.328481   -0.259916
N      -3.397027    1.049211   -0.367578
C       1.021622   -0.627586   -0.923741
N       1.827198   -1.125769   -1.585578
H       0.901720    1.754554   -0.346459
H       0.806056   -1.165578    1.699727
H      -0.065648    0.357149    2.115373
H      -1.504098   -1.413676   -0.872924
