23

C      -0.027134    1.550422    0.101986
C       0.000852    0.021869    0.029644
C       0.725568   -0.507779   -1.212127
C       0.698539   -2.035334   -1.333939
O      -0.635332   -2.541491   -1.390892
C       1.511389   -2.542663   -2.521617
C       3.051047   -2.517758   -2.384361
O       3.124288   -3.955597   -2.405856
C       1.697363   -4.072513   -2.600320
H       0.985996    1.967873    0.121502
H      -0.542439    1.979811   -0.764808
H      -0.546298    1.896711    1.001009
H       0.489242   -0.380313    0.926981
H      -1.019752   -0.375512    0.037077
H       0.272305   -0.076505   -2.118704
H       1.770027   -0.167577   -1.207176
H       1.113067   -2.475530   -0.416628
H      -1.058440   -2.160503   -2.169053
H       1.137958   -2.086732   -3.445289
H       3.596069   -2.064305   -3.221990
H       3.438537   -2.098884   -1.445481
H       1.211563   -4.642401   -1.799673
H       1.454469   -4.534653   -3.565182
