18

N      -0.443775    1.029155   -0.381954
C      -0.541331   -0.226435   -0.454687
O      -0.578381   -0.957834    0.682978
C      -0.714665   -2.368508    0.532920
C      -2.157812   -2.779500    0.311930
O      -2.679494   -2.424159   -1.005036
C      -3.138062   -3.767494   -1.193543
C      -1.992297   -4.720750   -1.258875
C      -2.506117   -4.250845    0.091873
H      -0.419792    1.425485   -1.319281
H      -0.605382   -0.831786   -1.365986
H      -0.076425   -2.734781   -0.279514
H      -0.357982   -2.802750    1.471995
H      -2.788573   -2.317667    1.080833
H      -4.119591   -3.910440   -1.628953
H      -2.254273   -5.748760   -1.489662
H      -1.037217   -4.393491   -1.657866
H      -2.876893   -4.927862    0.848673
