17

C       0.240770    1.346579    0.019001
N      -0.252414   -0.014576    0.037444
C      -0.101180   -0.966222   -0.977207
O      -0.066077   -0.850010   -2.171983
C       0.037470   -2.092985    0.038561
C       1.219647   -1.727832    0.944366
C      -0.093666   -1.018642    1.104643
C      -0.937605   -0.968826    2.340851
H       1.272102    1.423193    0.391993
H       0.217816    1.693000   -1.017143
H      -0.396833    2.002984    0.619578
H      -0.391562   -3.084061   -0.001016
H       1.464506   -2.475069    1.694916
H       2.080725   -1.213887    0.526718
H      -0.641774   -0.137079    2.990518
H      -1.993676   -0.840379    2.084244
H      -0.828115   -1.891388    2.918100
