18

C      -0.512171    1.087274   -0.264757
O      -0.245244   -0.299304   -0.379641
C       0.904638   -0.587602   -1.136482
C       1.098831   -2.117047   -1.144426
C       0.531312   -2.550813   -2.486315
C      -0.860194   -2.052668   -2.844065
C       0.361407   -1.282009   -3.267952
O       0.771481   -0.179905   -2.488712
H       0.329338    1.615330    0.209572
H      -0.703974    1.542901   -1.242728
H      -1.397232    1.190775    0.366621
H       1.755927   -0.022934   -0.729209
H       2.164295   -2.360767   -1.091759
H       0.600113   -2.556089   -0.277712
H       0.904859   -3.459971   -2.941723
H      -1.393645   -2.598218   -3.615741
H      -1.476636   -1.636376   -2.056440
H       0.626006   -1.158568   -4.311098
