21

C      -0.466403    1.504651    0.376632
C      -0.145824    0.019716    0.280982
C       0.242952   -0.536552   -1.105249
C      -0.650487   -0.975515   -2.218806
O       1.496023    0.092241   -1.447975
C       1.519072   -1.058308   -0.594461
C       1.232702   -0.561703    0.831998
C       2.236791    0.402827    1.439608
O       1.035822   -1.706855    1.646317
H       0.288881    2.100804   -0.142379
H      -1.439464    1.723984   -0.076946
H      -0.509948    1.840147    1.418511
H      -0.941791   -0.590147    0.720967
H      -1.182815   -0.122114   -2.654211
H      -0.066901   -1.451249   -3.011536
H      -1.397676   -1.688230   -1.855151
H       2.121443   -1.909391   -0.894186
H       2.478385    1.202394    0.735971
H       1.839980    0.862040    2.353644
H       3.156824   -0.130476    1.698575
H       0.777342   -1.405789    2.524012
