20

C      -0.065637    1.610016   -0.039841
C       0.098779    0.094756   -0.014707
C       0.862733   -0.486229   -1.237117
O       1.886413    0.376366   -1.705182
C       1.421783   -1.804184   -0.690015
C       1.615124   -1.538481    0.803559
O       2.255574   -2.202746    1.591625
N       0.903980   -0.398952    1.105026
C       0.676585   -0.002181    2.477905
H       0.903100    2.112875   -0.079098
H      -0.630753    1.902227   -0.929778
H      -0.614144    1.965220    0.837020
H      -0.903851   -0.365501    0.020847
H       0.190324   -0.619798   -2.087225
H       2.548789    0.460276   -1.009495
H       0.702140   -2.624545   -0.795075
H       2.349947   -2.109141   -1.176215
H       1.329422   -0.612332    3.104393
H       0.910205    1.055566    2.633562
H      -0.366846   -0.173363    2.776320
