19

C       0.000399    1.446570   -0.138130
N      -0.154531    0.009350   -0.245632
C      -1.167983   -0.670059    0.367805
O      -2.026140   -0.119513    1.035178
C      -1.133992   -2.185812    0.176599
C      -2.537945   -2.766311   -0.013968
C      -2.548980   -4.288309    0.003509
O      -3.884762   -4.715505   -0.210850
H       0.950932    1.713422    0.337819
H      -0.045614    1.928188   -1.121336
H      -0.821747    1.813642    0.477210
H       0.515212   -0.510587   -0.786866
H      -0.477804   -2.462121   -0.657883
H      -0.680387   -2.608350    1.083869
H      -3.187755   -2.384439    0.777815
H      -2.962856   -2.422669   -0.964066
H      -1.876166   -4.680153   -0.778501
H      -2.163121   -4.650066    0.971526
H      -3.901449   -5.676507   -0.187029
