19

C      -0.010181    1.494345   -0.028197
C       1.546152    1.535297    0.007209
C       2.104015    1.298718    1.449149
C       1.687844   -0.181535    1.280281
C       0.210300   -0.589685    1.487995
C      -0.054432   -0.060803    0.040040
C       1.493978   -0.018071   -0.224253
C       2.573845   -1.102936   -0.320002
O       2.698289   -1.197717    1.139477
H      -0.542511    2.044292    0.755565
H      -0.368007    1.833095   -1.004275
H       2.031169    2.274856   -0.631969
H       3.193482    1.379447    1.488629
H       1.669566    1.881617    2.267376
H       0.127570   -1.677864    1.551518
H      -0.354519   -0.136789    2.308895
H      -0.808235   -0.556595   -0.573726
H       2.254737   -2.055891   -0.758652
H       3.518402   -0.795757   -0.784566
