19

O      -0.188318    1.427173    0.050002
C      -0.087283    0.051182   -0.024924
C      -0.275667   -0.854236    1.175112
C      -1.206598   -0.997711    0.002868
O      -2.568961   -0.913549    0.198061
C      -0.522035   -1.752982   -1.118886
C      -0.458927   -3.235678   -1.329068
C      -1.227036   -2.355869   -2.295860
C       0.612993   -0.702136   -1.166993
H       0.504077    1.755636    0.633826
H       0.441730   -1.630376    1.435837
H      -0.742624   -0.350132    2.016375
H      -2.955337   -0.498688   -0.581967
H       0.476522   -3.666674   -1.671084
H      -1.029253   -3.872662   -0.660481
H      -2.311431   -2.408559   -2.264843
H      -0.813904   -2.193526   -3.286319
H       0.611145   -0.124076   -2.095332
H       1.626953   -1.065735   -0.965045
