20

C       0.636305    1.386658   -0.971209
N       0.750143   -0.054521   -0.912093
C      -0.279982   -0.859374   -0.558741
O      -1.406739   -0.476680   -0.286619
C       0.073349   -2.356837   -0.498725
C      -0.865886   -3.202202   -1.375849
C      -0.056033   -3.338762   -2.673915
C       1.372553   -3.432341   -2.134892
O       1.406690   -2.607703   -0.962614
H       1.317906    1.871026   -0.262755
H       0.854788    1.764383   -1.976555
H      -0.391129    1.644492   -0.709474
H       1.627880   -0.517012   -1.092890
H       0.008667   -2.645442    0.556996
H      -1.026339   -4.183744   -0.919478
H      -1.833592   -2.714895   -1.496207
H      -0.338031   -4.207106   -3.273476
H      -0.172256   -2.443634   -3.293864
H       1.625572   -4.466391   -1.859196
H       2.133491   -3.069895   -2.832939
