20

C      -0.264194    1.464003    0.055050
N       0.127893    0.063088    0.011294
C       1.214549   -0.370224   -0.899295
C       1.874222   -1.114825    0.266014
O       2.349288   -2.413278    0.206755
C       2.203633   -0.146741    1.373457
O       2.619172    1.174518    1.162860
C       0.762153   -0.565377    1.169888
C      -0.078507   -1.188423    2.245434
H       0.573029    2.157392    0.212990
H      -0.769989    1.723012   -0.881924
H      -0.987645    1.605505    0.865033
H       0.855630   -1.032589   -1.694286
H       1.808430    0.443494   -1.337187
H       3.294689   -2.390109    0.022525
H       2.664470   -0.641075    2.231978
H       3.508565    1.158869    0.792119
H      -0.553101   -0.421733    2.869285
H      -0.868017   -1.802429    1.802340
H       0.529203   -1.820030    2.899683
