14

O      -0.497781    0.249032    0.050642
C       0.015053    1.335430    0.112081
C       1.433426    1.642677   -0.334172
C       1.456469    2.786212   -1.326651
N       1.237193    4.129554   -0.787347
C       2.556599    3.804997   -1.362316
C       3.667583    3.747893   -0.442886
N       4.570025    3.681518    0.276520
H      -0.533652    2.216040    0.512984
H       2.010157    1.930489    0.553774
H       1.876899    0.739932   -0.762737
H       1.023547    2.559356   -2.299589
H       0.716109    4.714726   -1.434690
H       2.813776    4.215575   -2.334769
