21

C       0.066723    1.150704    0.284822
O       0.318146   -0.211320    0.012518
C       0.721567   -0.568499   -1.321017
C      -0.229691   -0.025628   -2.381378
C       2.207530   -0.241832   -1.548361
O       2.975442   -1.358449   -1.097788
C       2.110390   -2.358229   -0.573919
C       0.755286   -2.119115   -1.254376
O      -0.357117   -2.681179   -0.611179
H       0.911609    1.794997    0.004873
H      -0.835308    1.518136   -0.221301
H      -0.082537    1.229548    1.364506
H      -0.207090    1.066403   -2.443401
H       0.044438   -0.418596   -3.364376
H      -1.252848   -0.342965   -2.159198
H       2.417509   -0.073401   -2.612934
H       2.507606    0.661075   -1.001700
H       2.540379   -3.338208   -0.798645
H       1.997298   -2.263096    0.516272
H       0.777116   -2.519889   -2.273449
H      -0.537411   -2.098257    0.139218
