23

C      -0.507846    1.329630    0.137223
C      -0.176155   -0.149629    0.015323
C       0.641418   -0.489935   -1.231606
C       1.215439   -1.891109   -1.180372
C       1.712931   -2.408272   -2.504151
C       1.256005   -2.557416   -0.019530
C       1.747767   -3.965603    0.186124
C       0.772820   -1.905685    1.258833
O       0.557320   -0.515702    1.176830
H       0.411666    1.919728    0.203538
H      -1.077554    1.670248   -0.732813
H      -1.099747    1.516399    1.037272
H      -1.114124   -0.732854   -0.013204
H       0.007275   -0.385812   -2.123083
H       1.452968    0.243406   -1.351608
H       2.428864   -1.700989   -2.943188
H       2.208042   -3.377907   -2.436637
H       0.889206   -2.497785   -3.224813
H       2.670177   -3.979978    0.781907
H       1.008720   -4.551545    0.748493
H       1.943178   -4.495778   -0.746557
H      -0.147467   -2.419398    1.600585
H       1.518753   -2.050535    2.051205
