19

C      -0.022800    1.617523   -0.073166
C       0.021636    0.084997    0.046152
C       0.765135   -0.517715   -1.163508
O       0.449018   -0.357998   -2.313600
C       1.977508   -1.309688   -0.663192
C       2.204794   -0.802913    0.770899
C       0.799357   -0.445069    1.244969
C       0.454334   -0.183271    2.642374
O       0.138925   -1.443139    2.040837
H       0.981260    2.052990   -0.030803
H      -0.470487    1.896992   -1.030160
H      -0.614901    2.056384    0.734519
H      -1.000121   -0.307889    0.064082
H       1.693188   -2.370040   -0.656009
H       2.825339   -1.202763   -1.342468
H       2.665711   -1.537463    1.433923
H       2.837511    0.092630    0.762753
H       1.232650   -0.210131    3.405034
H      -0.401292    0.446734    2.883260
