21

C       0.048824    1.434786    0.057215
C      -0.067209   -0.064379   -0.102687
C       0.845071   -0.766022   -1.132374
C       0.336361   -2.194618   -1.003817
C      -0.829225   -2.190960   -0.326744
C      -0.735481   -2.398632    1.190769
C      -0.666647   -0.827456    1.166764
C      -1.385082   -0.758856   -0.157174
C      -2.749111   -0.260806   -0.529281
H       1.021397    1.714252    0.478528
H      -0.045184    1.936349   -0.913501
H      -0.725467    1.840221    0.715448
H       0.758796   -0.269651   -2.111582
H       1.912118   -0.753635   -0.872556
H       1.043399   -3.016955   -0.929922
H      -1.650711   -2.704448    1.712194
H       0.116200   -2.979329    1.556807
H      -0.887618   -0.218285    2.041634
H      -2.909427    0.758776   -0.163392
H      -2.885882   -0.249963   -1.616884
H      -3.536640   -0.894701   -0.106142
