17

O      -0.839416    1.153352   -0.150109
C       0.275022    0.870217    0.220004
C       1.415197    1.818744    0.134379
N       2.613889    1.466306    0.439860
C       3.463056    2.634105    0.155225
C       4.247186    2.528668   -1.181010
C       3.205456    3.472148   -1.864483
C       2.516702    3.711907   -0.486721
N       1.203783    3.119179   -0.266072
H       0.545748   -0.119399    0.633652
H       4.046444    2.897931    1.041247
H       5.252938    2.952689   -1.126775
H       4.313918    1.515349   -1.581793
H       3.621714    4.366103   -2.334870
H       2.555709    2.973446   -2.588312
H       2.564402    4.737078   -0.113872
H       0.393720    3.338415   -0.825737
