16

O       1.979156    4.132100    0.067542
C       1.080589    3.327907    0.058803
N       1.216913    1.957457   -0.038481
C       2.384137    1.220199   -0.144659
C       2.426156   -0.125860   -0.235895
C       3.814243   -0.589770   -0.335075
O       4.201980   -1.733418   -0.429144
C       4.711073    0.660104   -0.295439
C       3.754217    1.860533   -0.169356
H       0.012251    3.608073    0.129579
H       0.354850    1.430065   -0.031068
H       1.578899   -0.800129   -0.238918
H       5.404289    0.581080    0.546662
H       5.319558    0.697292   -1.203331
H       3.832497    2.567635   -0.999509
H       3.917302    2.453059    0.734850
