16

O       0.001879    1.442882   -0.061782
C       0.092028    0.038035    0.101521
C      -1.283817   -0.573130    0.043554
C      -2.272997   -0.484467    1.218261
O      -2.668144   -1.871139    1.025221
C      -1.723436   -2.051893   -0.040534
C      -2.284900   -1.677642   -1.419268
O      -1.928239   -0.281321   -1.223813
H      -0.479459    1.586811   -0.885858
H       0.730373   -0.420552   -0.669936
H       0.556263   -0.142698    1.076342
H      -1.815024   -0.337390    2.204095
H      -3.101636    0.216080    1.078078
H      -1.104463   -2.943733    0.074227
H      -1.746638   -2.107696   -2.273101
H      -3.362962   -1.824199   -1.538582
