18

N      -0.219697    1.310547    0.257145
C      -0.004541    0.092694    0.013934
O       1.229100   -0.464937   -0.088113
C       1.330833   -1.699852   -0.803995
C       1.165178   -1.498133   -2.315420
O       0.022464   -0.759168   -2.700809
C      -1.245751   -1.333463   -2.426310
C      -1.875954   -0.653387   -1.213623
O      -1.013660   -0.811643   -0.083424
H       0.660525    1.822485    0.277453
H       2.339377   -2.072631   -0.604371
H       0.609114   -2.418768   -0.411685
H       2.010837   -0.920239   -2.700195
H       1.180886   -2.489707   -2.797920
H      -1.883169   -1.177290   -3.305925
H      -1.162236   -2.415904   -2.257161
H      -2.033449    0.413417   -1.398837
H      -2.829553   -1.121777   -0.954007
