18

O      -0.029809    1.476330    0.059834
C       0.039974    0.081697   -0.131660
C      -1.333935   -0.567155    0.011111
C      -1.328632   -2.139692   -0.115413
C      -2.521837   -2.492286    0.787248
C      -2.586147   -3.244759    2.151983
O      -2.813029   -1.953486    2.857035
C      -2.460349   -1.319293    1.699978
N      -1.833795   -0.268188    1.397819
H      -0.512370    1.597619    0.888003
H       0.434527   -0.088391   -1.140146
H       0.731244   -0.393779    0.584902
H      -2.006304   -0.115328   -0.730532
H      -1.423520   -2.487656   -1.146173
H      -0.389393   -2.528495    0.295390
H      -3.461419   -2.593129    0.238652
H      -3.427782   -3.920723    2.306446
H      -1.647988   -3.686471    2.496541
