21

C       0.634506    1.317996    0.725438
C       0.941333   -0.144233    0.396472
C       0.522927   -0.532490   -1.041045
C       1.355436    0.140696   -2.038716
C       2.062818    0.689747   -2.841618
C       0.497847   -2.051067   -1.307317
C      -0.120377   -2.454247   -2.627699
C       1.452723   -2.950347   -0.646609
O       0.095427   -2.855210   -0.192803
H       1.148626    1.995082    0.036445
H      -0.439932    1.522170    0.657543
H       0.955445    1.562284    1.742398
H       2.014005   -0.327854    0.520602
H       0.413850   -0.811228    1.083876
H      -0.513603   -0.188072   -1.181177
H       2.678725    1.177362   -3.556126
H       0.436198   -2.022864   -3.464097
H      -0.129360   -3.542020   -2.728160
H      -1.154447   -2.096981   -2.689054
H       1.716724   -3.891810   -1.126477
H       2.200293   -2.558101    0.038876
