18

O       0.138577    0.006529   -0.062316
C       0.077920    1.193606    0.069569
C      -1.112540    2.189038    0.212275
C      -0.088738    3.310874   -0.058817
N       0.837902    3.231975    1.078311
C       1.059816    2.322696   -0.105877
C      -0.280818    4.551626   -0.844719
C      -1.334688    4.660500   -1.921309
C      -1.503254    5.417667   -0.630966
H      -1.836181    2.017978   -0.589086
H      -1.616987    2.231229    1.179439
H       1.521890    3.983655    0.972385
H       1.998777    2.342259   -0.645463
H       0.647851    5.083337   -1.039686
H      -1.078321    5.213702   -2.817571
H      -1.980505    3.808110   -2.098197
H      -2.251500    5.060873    0.068323
H      -1.373593    6.493940   -0.636306
