20

C      -0.046041    1.522807   -0.222132
C      -0.109670    0.009538   -0.180620
C      -0.221359   -0.716037    1.134553
C      -1.401106   -0.671141    0.195018
N       1.299002    2.055796   -0.077554
C       1.946576    2.288721    1.111464
C       3.230438    2.698028    0.833846
C       3.371575    2.709052   -0.581105
C       2.167787    2.307092   -1.112204
H      -0.448277    1.892512   -1.171652
H      -0.671010    1.942596    0.574241
H       0.488469   -0.474602   -0.947445
H       0.312988   -1.651793    1.251768
H      -0.274839   -0.121942    2.041117
H      -2.243857   -0.045100    0.471175
H      -1.679088   -1.575262   -0.334647
H       1.434128    2.147218    2.049796
H       3.977827    2.972206    1.562635
H       4.247392    2.993370   -1.144075
H       1.847959    2.183608   -2.135260
