20

N      -0.118659    1.305178    0.041476
C      -0.067715    0.045283    0.092789
O      -1.190905   -0.682143   -0.055572
C      -1.036218   -2.101183   -0.008230
C      -2.417483   -2.726802   -0.138180
C      -2.372419   -4.248487   -0.091451
C      -2.135655   -4.932038    1.277774
O      -3.369905   -5.667002    1.177682
C      -3.723093   -4.999117   -0.050218
H       0.811630    1.695690    0.175887
H       0.832923   -0.564413    0.254656
H      -0.383147   -2.434582   -0.827319
H      -0.563824   -2.394863    0.940099
H      -3.055707   -2.344557    0.667486
H      -2.865204   -2.392249   -1.081486
H      -1.707015   -4.634075   -0.870063
H      -1.266712   -5.596402    1.355271
H      -2.134968   -4.246008    2.137235
H      -4.602363   -4.351723    0.072039
H      -3.914747   -5.708190   -0.864014
