20

C       0.003073    1.522351    0.183366
C       1.477402    1.949860    0.040758
C       1.996202    1.029795   -1.071659
C       1.368138   -0.334782   -0.752544
C      -0.000519   -0.001658   -0.106811
C       1.378058   -1.382672   -1.899276
N       2.228838   -2.489335   -1.435807
C       2.606736   -2.157925   -0.272753
O       2.208261   -0.986280    0.266360
H      -0.414764    1.762758    1.164121
H      -0.606535    2.047226   -0.560643
H       1.595531    3.012827   -0.185886
H       2.023756    1.744281    0.967687
H       1.619936    1.368072   -2.046029
H       3.085306    0.965046   -1.137860
H      -0.106774   -0.591385    0.807109
H      -0.821271   -0.285626   -0.771740
H       0.373785   -1.758448   -2.125733
H       1.784437   -0.966892   -2.828364
H       3.250043   -2.751071    0.368808
