19

C      -0.163248    1.464856   -0.044119
N      -0.052960    0.022002   -0.007695
C       0.361866   -0.791909   -1.016508
N       0.351491   -2.059613   -0.671227
C      -0.093474   -2.084350    0.634056
C      -0.348715   -0.800453    1.060320
C      -0.230302   -3.368006    1.351873
C       0.063431   -3.478883    2.834445
C      -1.351620   -3.602084    2.344236
H       0.482584    1.926949    0.709300
H       0.144546    1.819101   -1.029812
H      -1.194989    1.784226    0.134175
H       0.657698   -0.397276   -1.978040
H      -0.703049   -0.396721    1.994787
H       0.056209   -4.213328    0.736680
H       0.568781   -4.370525    3.189409
H       0.350796   -2.568582    3.350164
H      -2.031325   -2.775886    2.524739
H      -1.823038   -4.578763    2.360837
