20

C       0.012895    1.568557    0.030058
C      -0.018265    0.033660   -0.014093
C       0.676827   -0.499311   -1.282584
C       0.219004   -1.913778   -1.648306
O      -0.103718   -2.689505   -0.489572
C       0.859584   -2.774277    0.484651
N       1.758129   -3.658183    0.552530
O       0.685464   -1.903778    1.497168
C       0.663756   -0.489355    1.259853
H       1.042175    1.945242    0.008825
H      -0.512328    1.990342   -0.831862
H      -0.465614    1.954305    0.935907
H      -1.063318   -0.297717   -0.012312
H       0.477857    0.159849   -2.135239
H       1.763577   -0.480887   -1.128380
H      -0.712010   -1.886749   -2.220537
H       0.975007   -2.433097   -2.252583
H       1.655372   -4.302104   -0.231605
H       1.705574   -0.135754    1.267811
H       0.166475   -0.079260    2.142606
