12

C       0.023542    1.396750    0.007623
O       0.021637   -0.021930    0.002853
C      -1.199453   -0.590325    0.010244
C      -2.455341   -0.059443    0.021832
O      -3.364018   -1.059631    0.025291
N      -2.707177   -2.276978    0.015858
C      -1.428839   -1.995623    0.007008
H       1.068392    1.708676    0.000556
H      -0.483903    1.794120   -0.881458
H      -0.469996    1.788095    0.907144
H      -2.849997    0.941982    0.028444
H      -0.697144   -2.790027   -0.001475
