20

C       0.028610    1.598350   -0.016304
C       0.030231    0.068077   -0.021691
C       0.742474   -0.497867   -1.261683
C       1.013313   -1.974529   -1.161018
C       0.918549   -2.678005   -0.035499
C       0.557310   -2.048043    1.298603
C       0.672162   -0.506016    1.248425
C      -0.788750   -2.471367    1.715181
N      -1.848771   -2.800400    2.039244
H       1.049174    1.994390    0.049182
H      -0.423202    1.995950   -0.931081
H      -0.537486    1.990982    0.834464
H      -1.012349   -0.277595   -0.048536
H       0.145685   -0.295946   -2.160272
H       1.693852    0.033796   -1.421355
H       1.308357   -2.482646   -2.076252
H       1.101133   -3.748163   -0.030369
H       1.246180   -2.426723    2.065299
H       1.738707   -0.249830    1.268285
H       0.218218   -0.072315    2.144688
