22

C      -0.879356    0.941678   -0.527109
C      -0.215387   -0.327346    0.012140
N       0.324453   -1.169791   -1.039834
C       1.650652   -1.381773   -1.210818
O       2.529039   -0.912197   -0.504990
C       2.016441   -2.281221   -2.405848
C       2.957245   -3.399737   -1.954358
O       0.825837   -2.770902   -3.010341
C       0.970703   -3.190018   -4.349716
H      -0.157728    1.552138   -1.077619
H      -1.707758    0.701866   -1.202811
H      -1.281783    1.541220    0.295652
H       0.625694   -0.076105    0.662211
H      -0.935184   -0.905206    0.605709
H      -0.288468   -1.616575   -1.704499
H       2.544508   -1.627642   -3.119136
H       3.362517   -3.950933   -2.807071
H       3.783443   -2.961491   -1.391731
H       2.422020   -4.100977   -1.306973
H       1.366744   -2.382394   -4.984060
H       1.632447   -4.061771   -4.443921
H      -0.022944   -3.467512   -4.709789
