21

C       0.427509    1.080579    0.372081
O      -0.296712    0.059353   -0.291650
C       0.427746   -0.565609   -1.293885
C       1.377614   -1.727497   -0.940593
C       1.569853   -2.145560    0.462110
O       2.605332   -2.606123    0.887568
C       0.035618   -1.943786   -1.684151
C      -1.125267   -2.614664   -0.970957
C       0.166983   -2.323943   -3.147645
H       1.311243    0.679268    0.887428
H       0.756729    1.859223   -0.330916
H      -0.247696    1.524433    1.106317
H       0.790002    0.109957   -2.071898
H       2.277624   -1.825091   -1.539754
H       0.694994   -2.005826    1.130422
H      -1.288402   -2.211559    0.028432
H      -2.046166   -2.454495   -1.542486
H      -0.964967   -3.695172   -0.894654
H       0.345187   -3.399521   -3.254111
H      -0.752204   -2.079686   -3.692454
H       0.995469   -1.798258   -3.631683
