19

C      -0.021767    1.554697    0.184239
C      -0.048172    0.032940    0.036462
O       0.604621   -0.601320    1.123292
C      -1.486804   -0.521461   -0.075952
C      -1.621237   -2.070883    0.001019
C      -2.425151   -1.805043    1.284082
O      -2.146821   -0.384185    1.224175
C      -2.246134    0.097262   -1.154363
C      -2.863308    0.585070   -2.063885
H       1.007241    1.886094    0.343277
H      -0.422149    2.048526   -0.704357
H      -0.624371    1.861904    1.045749
H       0.499913   -0.270603   -0.863149
H       0.055563   -0.413658    1.896188
H      -2.159545   -2.535544   -0.823618
H      -0.662856   -2.561402    0.165910
H      -3.500634   -2.001867    1.208158
H      -2.040198   -2.253295    2.205873
H      -3.411765    1.022621   -2.861548
