18

C      -0.162551    1.516622    0.032378
C      -0.155064   -0.000614   -0.167817
C       1.060795   -0.489259   -0.967789
C       1.052594   -1.984271   -1.157908
O       0.110537   -2.519175   -2.088471
C       1.508358   -2.655858   -2.397113
C       2.016694   -1.931316   -3.531216
C       2.469790   -1.357939   -4.485857
H       0.728187    1.850062    0.576784
H      -0.177481    2.041847   -0.928951
H      -1.040317    1.838163    0.601211
H      -0.173921   -0.501196    0.809341
H      -1.066004   -0.313684   -0.691069
H       1.086406   -0.003888   -1.948912
H       1.987299   -0.209485   -0.448005
H       1.136539   -2.572366   -0.240372
H       1.878919   -3.677266   -2.309182
H       2.862143   -0.847509   -5.330703
