16

O      -0.048763   -0.077539   -0.346699
C       0.069246    1.079403   -0.045265
O       1.194427    1.781968    0.021204
C       2.411026    1.054919   -0.324087
C       3.564410    1.999628   -0.197706
C       4.177062    2.260883    1.155046
C       4.925532    1.438985    0.139993
C      -1.076053    1.928219    0.314922
N      -2.010263    2.548866    0.589637
H       2.504672    0.202013    0.355239
H       2.293046    0.666089   -1.339931
H       3.539288    2.833142   -0.892730
H       4.525602    3.264635    1.367744
H       3.750600    1.747927    2.010523
H       5.009534    0.370732    0.310117
H       5.786213    1.876666   -0.351950
