23

C       0.220096    1.583445    0.167329
C      -0.163267    0.121693   -0.100175
C       0.615599   -0.484576   -1.254155
O       0.433433    0.195443   -2.475919
C       1.978715   -1.090516   -1.025102
O       2.480164   -1.067545    0.282456
C       0.801064   -1.988918   -1.403620
C       0.236212   -2.925314   -0.349826
C       0.794132   -2.572716   -2.805415
H       1.280808    1.667153    0.425443
H       0.023476    2.216262   -0.704942
H      -0.361259    1.992096    0.999117
H       0.008877   -0.459722    0.807127
H      -1.233199    0.056154   -0.333263
H       0.915802    1.027346   -2.422351
H       2.720540   -0.910341   -1.805194
H       2.970760   -1.883150    0.430792
H       0.457180   -2.593726    0.666290
H      -0.850492   -3.024169   -0.448960
H       0.665189   -3.927308   -0.470878
H       1.398225   -3.487131   -2.841287
H      -0.224832   -2.836949   -3.111653
H       1.182695   -1.865448   -3.538639
