23

C       0.271741    1.524229    0.042049
C       0.081814    0.007932    0.149301
C      -1.377940   -0.460480   -0.021040
C      -1.443704   -1.985016   -0.239941
C      -2.798939   -2.518777   -0.711334
O      -3.816913   -2.502577    0.268241
C      -4.375595   -1.229119    0.534306
C      -3.514382   -0.305740    1.367921
C      -2.242339    0.013178    1.131253
H       1.324429    1.797131    0.165173
H      -0.055379    1.891259   -0.937328
H      -0.299151    2.066925    0.802217
H       0.697402   -0.479769   -0.616016
H       0.460195   -0.347941    1.117053
H      -1.761781    0.009259   -0.942989
H      -0.704990   -2.258591   -1.005296
H      -1.159840   -2.506719    0.681708
H      -3.126744   -1.961322   -1.607074
H      -2.691847   -3.569507   -1.001751
H      -4.644367   -0.735107   -0.417615
H      -5.311541   -1.429112    1.064545
H      -4.002806    0.133904    2.234823
H      -1.759459    0.689166    1.834298
