15

C      -0.031971    1.528607    0.010095
C       0.039259    0.002203    0.033409
O       0.783810   -0.463060   -1.085637
C       1.857170   -1.239303   -0.656002
O       2.619586   -1.730953   -1.440449
C       1.819010   -1.288244    0.803360
C       0.761588   -0.573954    1.235641
N       0.277705   -0.379007    2.493337
H       0.970416    1.957238    0.093138
H      -0.477683    1.861110   -0.930230
H      -0.650304    1.911248    0.829489
H      -0.974675   -0.418113   -0.027572
H       2.548959   -1.830377    1.384679
H       0.871062   -0.612760    3.273116
H      -0.340637    0.399052    2.654719
