17

O      -0.610784    1.325805   -0.271132
C      -0.413953   -0.069180   -0.235118
C      -0.417265   -0.675082    1.147763
O      -0.540606    0.198734    2.226726
C      -1.599200   -0.892883    0.213691
C      -2.935192   -0.261291    0.509356
O      -3.771285   -0.237699   -0.661414
C      -3.720913    0.862922   -1.438026
O      -4.357001    0.964355   -2.444900
H       0.246966    1.746138   -0.395464
H       0.227690   -0.461816   -1.019481
H       0.224649   -1.521241    1.373263
H      -0.545194    1.091378    1.853129
H      -1.672493   -1.876938   -0.240437
H      -3.484014   -0.857606    1.241716
H      -2.821914    0.747773    0.913019
H      -3.040613    1.639008   -1.043107
