21

C      -0.102676    1.516290   -0.005734
C       0.114828    0.019763    0.077572
O       1.165597   -0.470364   -0.811557
C       1.766192   -1.199409    0.274305
C       2.276169   -2.574810   -0.015552
C       3.459845   -2.557793   -0.980855
O       3.852137   -3.904848   -1.199342
C       2.273455   -0.234096    1.303307
C       0.803663   -0.617664    1.284789
H       0.794286    2.070297    0.283046
H      -0.368855    1.803260   -1.028100
H      -0.923774    1.813738    0.655483
H      -0.817083   -0.511440   -0.158364
H       2.584528   -3.054899    0.919776
H       1.477753   -3.185941   -0.451485
H       3.156753   -2.067473   -1.917610
H       4.281118   -1.965150   -0.547406
H       4.553942   -3.909352   -1.856428
H       2.832515   -0.673619    2.123927
H       2.602664    0.756662    1.004107
H       0.305330   -1.078532    2.127430
