18

C      -0.007176    1.536081   -0.005422
C      -0.005785    0.037487    0.023457
C      -0.005840   -0.802680   -1.073407
N      -0.003042   -2.118557   -0.642320
C      -0.002224   -2.114070    0.721089
C      -0.003840   -0.823405    1.160861
C      -0.002866   -0.836998    2.656035
O      -0.002626   -2.238608    3.004466
C       0.000449   -3.087240    1.850222
H       0.873225    1.954404    0.497128
H      -0.007888    1.910194   -1.033403
H      -0.888005    1.952798    0.497722
H      -0.006929   -0.568400   -2.126740
H      -0.005662   -2.923329   -1.243358
H       0.883636   -0.363207    3.103682
H      -0.888620   -0.363368    3.105199
H      -0.884801   -3.742687    1.875041
H       0.889695   -3.737370    1.874983
