16

O      -0.115273    1.304543    0.002777
N      -0.005043   -0.085231   -0.015903
C      -1.139797   -0.659939   -0.011370
C      -2.531631   -0.028750    0.020129
O      -2.842468    0.815633   -1.082587
C      -3.418193   -1.249182    0.097310
C      -2.732554   -2.393266    0.075748
C      -1.236603   -2.185809    0.003043
O      -0.619970   -2.853854   -1.089356
H       0.807094    1.583746    0.013454
H      -2.628538    0.623333    0.895571
H      -2.804051    0.277277   -1.880861
H      -4.497533   -1.152973    0.138287
H      -3.155996   -3.391095    0.097818
H      -0.727136   -2.590604    0.884779
H      -0.992550   -2.494286   -1.902051
