19

C       0.035840    1.356147    0.046560
O       0.018750   -0.062827   -0.017020
C       0.696688   -0.586520   -1.113234
O       2.069320   -0.308030   -0.993875
C       2.820051   -1.059907   -1.941485
C       2.687676   -2.548982   -1.636261
N       1.318021   -2.981587   -1.395803
C       0.435555   -2.094389   -1.157215
N      -0.893761   -2.422904   -1.000498
H       1.053276    1.735293    0.183548
H      -0.390766    1.795847   -0.866822
H      -0.578748    1.639823    0.903062
H       0.312353   -0.126742   -2.048769
H       2.463181   -0.841553   -2.961809
H       3.855284   -0.717098   -1.862613
H       3.101748   -3.134107   -2.467687
H       3.290272   -2.799665   -0.752122
H      -1.053875   -3.410818   -0.861268
H      -1.403962   -1.816188   -0.375448
