17

C      -0.150296    1.546897   -0.044617
C       0.021383    0.026009    0.062309
C       0.872895   -0.353007    1.291937
O      -1.271390   -0.544635    0.167538
C       0.685773   -0.524652   -1.175661
N       0.284308   -1.549462   -1.869965
C       1.260202   -1.638534   -2.832101
N       2.203324   -0.742985   -2.752426
O       1.818689    0.013643   -1.630614
H       0.816445    2.050547   -0.118328
H      -0.753094    1.800379   -0.919942
H      -0.670664    1.904514    0.847460
H       0.374286    0.017419    2.191192
H       0.964550   -1.440007    1.370679
H       1.875292    0.080961    1.234339
H      -1.265400   -1.382167   -0.313975
H       1.264661   -2.387961   -3.610069
