12

N       0.011087    1.306879   -0.066724
C       0.007175   -0.045202    0.017920
N      -1.118746   -0.692512    0.066074
O      -1.075616   -2.077363    0.212148
N       0.087522   -2.778711    0.295570
C       1.185462   -2.126180    0.225070
F       2.304096   -2.834477    0.301529
C       1.323335   -0.697243    0.067700
N       2.396860   -0.006448   -0.034252
H       0.893877    1.729577   -0.308356
H      -0.845196    1.781083   -0.298515
H       3.221776   -0.606700    0.010046
