13

O       0.145986    0.043049   -0.210666
C       0.178386    1.234749   -0.246123
O       0.876052    1.972412    0.641228
C       0.880042    3.392430    0.482217
C       2.262705    3.857162    0.001725
C       2.331117    5.307997   -0.103097
C       2.346532    6.507039   -0.177597
H      -0.356121    1.856546   -0.991652
H       0.102896    3.703738   -0.225848
H       0.648261    3.826275    1.457728
H       3.020420    3.485637    0.701229
H       2.479717    3.394342   -0.968882
H       2.379328    7.566161   -0.248211
