17

C       0.185874    1.570638    0.046104
C      -0.005186    0.085490   -0.022170
C      -0.207247   -0.574996   -1.181978
N      -0.398992   -1.941125   -1.225414
C      -0.374696   -2.697773   -0.082859
N      -0.502651   -4.073105   -0.293522
H      -1.283213   -4.325245   -0.888749
H      -0.550434   -4.588953    0.574404
C      -0.182932   -2.097736    1.124231
H      -0.202140   -2.687963    2.033003
C       0.032857   -0.666292    1.251592
O       0.215044   -0.098307    2.328074
H       1.143410    1.810517    0.519895
H       0.152592    2.033489   -0.944440
H      -0.583427    2.027664    0.677516
H      -0.239030   -0.081543   -2.146837
H      -0.372269   -2.414304   -2.113634
