20

C      -0.297429    1.394699   -0.202863
C      -0.187577   -0.127839   -0.307852
C       1.021208   -0.592799   -1.119016
C       1.098238   -2.117963   -1.329568
C       0.393413   -2.330603   -2.667132
O      -0.990077   -2.582607   -2.443014
C       0.560518   -0.984596   -3.356864
N       0.303282   -0.788441   -4.579058
O       0.958338   -0.043583   -2.464390
H       0.584252    1.823471    0.286939
H      -0.381355    1.848232   -1.193984
H      -1.176557    1.683872    0.380112
H      -0.100475   -0.568750    0.693541
H      -1.089161   -0.555026   -0.760465
H       1.941076   -0.192519   -0.680672
H       2.140574   -2.439242   -1.406047
H       0.617795   -2.682139   -0.528493
H       0.841546   -3.129807   -3.268186
H      -1.433415   -2.445618   -3.289424
H       0.408079    0.198309   -4.822053
