18

O      -0.965089    0.820014    0.225200
C       0.231029    0.719229    0.156507
C       1.162768    1.866711   -0.114855
C       0.596875    3.073147   -0.825914
N       0.294227    2.732536   -2.208506
C       0.189702    3.848698   -3.140567
C       1.367466    2.938285   -3.176396
C       2.313288    1.980277    0.810527
O       2.484588    1.449011   -0.492139
H       0.764956   -0.244670    0.315273
H      -0.337135    3.355624   -0.328470
H       1.304845    3.915927   -0.738694
H      -0.598480    3.769305   -3.883453
H       0.350403    4.854107   -2.753496
H       2.315002    3.326951   -2.809436
H       1.456454    2.179032   -3.947503
H       2.738160    2.967332    0.986946
H       2.426720    1.269029    1.628139
