16

C       0.058442    1.368262   -0.205957
C       1.478231    1.850086    0.177474
C       2.106800    0.567623    0.673302
N       3.366878    0.373289    1.021491
C       3.672231   -0.859618    1.462714
C       2.744078   -1.891781    1.566749
C       1.412849   -1.678507    1.197912
C       1.108818   -0.408694    0.739077
O      -0.107890    0.026638    0.333760
H      -0.740989    1.986181    0.207536
H      -0.072913    1.305447   -1.291420
H       2.015322    2.279568   -0.671900
H       1.458435    2.607536    0.968708
H       4.707884   -1.022884    1.746170
H       3.059021   -2.862715    1.933111
H       0.661353   -2.456479    1.262818
