18

C      -0.024085    1.491845   -0.010139
C       1.479085    1.923237    0.088296
C       2.231171    0.622473   -0.016703
C       3.489426    0.165877   -0.117459
C       3.463985   -1.336368   -0.110127
N       2.926605   -1.908432    1.156916
C       2.025749   -1.751911   -0.026470
C       1.263180   -0.478247   -0.002043
C       0.004935   -0.025772   -0.010156
H      -0.617149    1.887972    0.823133
H      -0.496955    1.876962   -0.923454
H       1.757156    2.631947   -0.697702
H       1.678601    2.421331    1.043139
H       4.402627    0.746105   -0.152466
H       4.200976   -1.912191   -0.660854
H       3.190047   -2.892949    1.201394
H       1.642058   -2.643368   -0.508856
H      -0.899482   -0.623161   -0.023497
