14

O      -0.062803    1.446006    0.269863
C      -0.047391    0.066902    0.140382
C      -0.480663   -0.755114    1.312681
O      -1.277577   -0.082892    2.262462
C      -2.391861    0.327812    1.591947
C      -3.341224    1.135837    2.411416
O      -4.373117    1.584604    1.989422
N      -2.536853   -0.041833    0.377661
C      -1.338510   -0.739723    0.024043
H      -0.512494    1.820464   -0.496242
H       0.785517   -0.354118   -0.422350
H       0.097907   -1.567995    1.731175
H      -3.002609    1.279126    3.457338
H      -1.420040   -1.537437   -0.703987
