19

C      -0.167750    1.226448   -0.040530
O      -0.216159   -0.164035   -0.251724
C       0.885286   -0.636775   -1.001042
C       0.766200   -2.133630   -1.113991
C      -0.155588   -2.747527   -2.120529
C       1.347481   -2.842754   -2.330874
O       1.971932   -2.054153   -3.302410
C       1.999242   -4.161066   -2.083201
O       1.607810   -4.979799   -1.287199
H       0.732771    1.525544    0.519545
H      -0.179225    1.786102   -0.989798
H      -1.051571    1.499837    0.540874
H       0.907150   -0.178205   -2.000866
H       1.831276   -0.368227   -0.501235
H       0.885237   -2.684065   -0.185994
H      -0.668421   -3.666127   -1.859599
H      -0.684384   -2.075076   -2.788004
H       1.619322   -2.296200   -4.165072
H       2.904603   -4.326385   -2.709236
