17

O      -0.166707    1.472653   -0.074941
C      -0.208649    0.099261   -0.397341
C      -1.494988   -0.536002    0.131995
C      -1.655132   -2.102019    0.191187
C      -2.091774   -1.991146    1.699916
C      -1.614934   -0.538350    1.656599
O      -1.288387    0.266057    2.487611
C      -2.582098   -2.718268   -0.733063
C      -3.367131   -3.214540   -1.496749
H      -0.274108    1.539798    0.883332
H      -0.158699    0.022298   -1.488341
H       0.660755   -0.443695    0.010610
H      -2.367528   -0.062998   -0.330159
H      -0.672347   -2.579871    0.120496
H      -3.177510   -2.057130    1.817136
H      -1.611922   -2.652743    2.424009
H      -4.055087   -3.657921   -2.173398
