19

N       0.516297   -0.721594   -0.416078
C      -0.496771   -0.090527    0.234674
O      -0.378282    0.949789    0.849181
C      -1.860845   -0.785853    0.112672
O      -1.816950   -2.127929   -0.330558
C      -1.523950   -3.073788    0.688995
C      -1.718210   -4.470611    0.141217
C      -2.824346   -4.779904   -0.792553
N      -1.422949   -4.771320   -1.266149
H       1.417589   -0.275729   -0.459526
H       0.326105   -1.525861   -0.988842
H      -2.368714   -0.691013    1.080330
H      -2.446220   -0.228006   -0.626356
H      -0.489299   -2.944355    1.042506
H      -2.189395   -2.915289    1.552187
H      -1.390794   -5.242823    0.834919
H      -3.296279   -5.757829   -0.771798
H      -3.467109   -3.959489   -1.095869
H      -1.267675   -3.890975   -1.753037
