15

C      -0.033136    1.532153    0.079631
C      -0.010865    0.047524   -0.046185
C       0.015802   -0.799297   -1.147982
C       0.028598   -2.152677   -0.710400
C       0.009466   -2.108660    0.655197
N      -0.014065   -0.779793    1.035902
N       0.028427   -0.374872   -2.510127
O       0.052330   -1.244649   -3.377374
O       0.014654    0.837351   -2.738083
H       0.842142    1.979056   -0.399189
H      -0.907635    1.954780   -0.422125
H      -0.051095    1.831416    1.132227
H       0.049258   -3.021095   -1.345960
H       0.010385   -2.895031    1.391635
H      -0.031625   -0.453619    1.987941
