14

O       0.408523    1.094503   -0.683960
C       0.011431   -0.068411   -0.048785
C       0.556152   -0.244390    1.361087
O       1.469383    0.410634    1.796706
C      -0.307207   -1.263773    2.097530
C      -1.635055   -1.320089    1.297232
C      -1.495502   -0.280521    0.170381
O      -2.389181    0.272587   -0.403817
H       1.110644    1.470529   -0.130808
H       0.329919   -0.978448   -0.603633
H       0.211140   -2.228295    2.117081
H      -0.432540   -0.949531    3.136362
H      -1.809030   -2.305529    0.852520
H      -2.516194   -1.081540    1.896192
