21

C      -0.000204    1.480018    0.076230
C      -0.020693   -0.028523   -0.019471
C       0.752396   -0.665111   -1.209529
C       1.109590   -2.072041   -0.639774
C       0.462554   -1.991879    0.765019
O       0.659275   -0.615032    1.109679
C      -1.054300   -2.090849    0.586851
C      -1.891776   -1.133432    1.394096
C      -1.392858   -0.719964    0.033635
H       1.028680    1.848398    0.129657
H      -0.478931    1.923604   -0.802439
H      -0.537824    1.818807    0.966287
H       0.144382   -0.712525   -2.117082
H       1.650393   -0.083600   -1.435162
H       0.707788   -2.894255   -1.238065
H       2.190832   -2.208390   -0.559858
H       0.909037   -2.626151    1.532310
H      -1.483915   -3.001895    0.187135
H      -2.948816   -1.364796    1.467269
H      -1.459422   -0.673873    2.275444
H      -2.083877   -0.580658   -0.789647
