15

O       0.077646    1.445677    0.278115
C      -0.010349    0.085184    0.067861
C      -1.280113   -0.754437   -0.035862
C      -0.738640   -1.902239   -0.883249
N       0.539441   -1.693425   -1.483282
C       1.005178   -0.664088   -0.865573
N       1.987888   -0.987495    0.193078
C       0.660106   -0.918370    1.012352
C      -0.537153   -1.883539    0.665263
H       0.057470    1.890287   -0.577099
H      -2.315652   -0.449270    0.008728
H      -1.406930   -2.643280   -1.305908
H       2.478024   -0.141366    0.498250
H       0.797917   -0.704047    2.072727
H      -0.916367   -2.674967    1.295450
