21

C       0.540418    1.620967    0.180228
C      -0.141687    0.256178   -0.043596
O       0.171428   -0.242425   -1.318774
C       0.328447   -0.743029    1.022505
O       1.152164   -1.577798    0.688065
C      -0.179921   -0.658153    2.426600
C      -1.407285    0.181887    2.729277
C       0.040760   -1.919209    3.252595
C       0.921670   -0.741113    3.489316
H       1.626809    1.501710    0.127071
H       0.231275    2.302645   -0.615869
H       0.284365    2.069723    1.144092
H      -1.230422    0.381033    0.027600
H       0.826221   -0.941262   -1.156889
H      -2.283951   -0.172520    2.176477
H      -1.647558    0.119898    3.794650
H      -1.264255    1.239748    2.490514
H      -0.724119   -2.153142    3.984546
H       0.466974   -2.764441    2.726553
H       1.941940   -0.795244    3.128190
H       0.775136   -0.142759    4.382037
