17

O       0.313748    1.116874   -0.608087
C       0.078187   -0.160677   -0.026552
C       0.540060   -0.291078    1.404096
C      -0.388469   -0.832184    2.192138
C      -1.650561   -1.183806    1.446099
C      -1.407113   -0.582946    0.057713
C      -2.440950    0.190134   -0.676036
N      -2.093435   -1.180706   -1.093193
H      -0.080927    1.772594   -0.021436
H       0.631118   -0.847604   -0.683018
H       1.534381    0.018987    1.705054
H      -0.265978   -1.034631    3.250930
H      -1.788488   -2.270406    1.375118
H      -2.551471   -0.789128    1.931671
H      -3.434546    0.299364   -0.248150
H      -2.106383    1.017900   -1.293874
H      -1.487905   -1.136583   -1.911093
