13

C      -0.022928    1.488215    0.000118
C       0.013802   -0.008131   -0.007488
N      -0.050536   -0.637256   -1.188043
C      -0.012182   -1.968086   -1.113363
N       0.081416   -2.699341   -0.002883
C       0.138504   -1.963758    1.110010
N       0.109713   -0.637294    1.174712
C      -0.079158   -2.689605   -2.366782
N      -0.132661   -3.264214   -3.367487
H       0.882068    1.878138    0.476354
H      -0.104136    1.875010   -1.015032
H      -0.869948    1.834651    0.600369
H       0.215765   -2.505950    2.049394
