14

C      -0.052414    1.517617    0.102287
N       0.012368    0.069865    0.104865
C      -1.225173   -0.699425    0.359602
C      -0.405229   -1.632290    1.252739
O      -0.554989   -2.688694    1.770719
C       0.759015   -0.586690    1.197370
C       2.108554   -1.034203    0.883904
N       3.176024   -1.401908    0.637470
H       0.950594    1.929524   -0.040387
H      -0.674450    1.852487   -0.732554
H      -0.472118    1.933637    1.036861
H      -1.990533   -0.162957    0.945797
H      -1.695689   -1.138100   -0.525870
H       0.774631   -0.014613    2.142321
