20

C      -0.039834    1.586131   -0.027663
C      -0.035639    0.055906   -0.054128
C       0.763497   -0.525214   -1.226422
O       2.122810   -0.089269   -1.209351
C       0.692862   -2.048271   -1.287528
C      -0.626007   -2.668694   -1.803675
O       0.019901   -3.177585   -2.985443
C       1.308682   -2.694378   -2.546249
H       0.982389    1.973090   -0.013179
H      -0.534745    1.992563   -0.916445
H      -0.567067    1.966578    0.852091
H       0.388597   -0.335580    0.882736
H      -1.064174   -0.323921   -0.101992
H       0.363710   -0.120773   -2.166576
H       2.515392   -0.390332   -0.381660
H       1.048369   -2.472612   -0.342097
H      -1.047490   -3.471575   -1.185592
H      -1.424944   -1.954401   -2.045324
H       1.757038   -1.992280   -3.258651
H       2.011971   -3.516779   -2.365280
