16

O      -0.014932    1.443457    0.059169
C       0.019887    0.023193   -0.008742
C      -1.422041   -0.472768    0.079626
C      -1.503484   -1.978311   -0.199810
C      -0.870908   -2.363203   -1.532935
O      -1.250924   -3.316641   -2.181460
C       0.265303   -1.522392   -1.976907
C       0.676241   -0.455025   -1.282755
H       0.887602    1.769321    0.135581
H       0.590284   -0.381853    0.847339
H      -1.835019   -0.231622    1.063159
H      -2.006902    0.082637   -0.662502
H      -0.964114   -2.532158    0.582672
H      -2.532971   -2.344112   -0.190960
H       0.750555   -1.833464   -2.896981
H       1.530669    0.125851   -1.627946
