14

O      -0.011650    1.330539    0.218683
C      -0.026311   -0.048867    0.036826
C      -1.381724   -0.721019   -0.012970
C      -2.561416    0.186274   -0.282111
C      -2.265757    0.826754   -1.640839
O      -2.884695    1.664168   -2.222053
O      -1.108584    0.290637   -2.158423
C      -0.530997   -0.628886   -1.261568
H       0.564300    1.722770   -0.447058
H       0.769874   -0.599744    0.536869
H      -1.528309   -1.657776    0.509150
H      -3.501678   -0.368632   -0.348156
H      -2.690696    0.984143    0.452390
H      -0.055543   -1.463581   -1.760879
