17

C       0.244614    1.410417   -0.306447
C       0.096538   -0.032832    0.102019
O       1.290778   -0.827644    0.173569
C       0.538052   -0.601200    1.388435
C       1.236690    0.205860    2.458825
C      -0.119330   -1.880264    1.878456
O       0.851247   -2.804691    2.340346
H       1.065433    1.903410    0.216774
H       0.439396    1.476899   -1.381938
H      -0.681344    1.958488   -0.100846
H      -0.729604   -0.547677   -0.394941
H       0.505815    0.676907    3.125434
H       1.860266   -0.460713    3.061514
H       1.872875    0.981199    2.030462
H      -0.778973   -1.674408    2.728532
H      -0.729004   -2.311613    1.070819
H       1.458072   -2.945057    1.603584
