18

C       0.058766    1.533695    0.015868
C       0.011995    0.005965    0.004881
C       0.794689   -0.627863   -1.200140
C       1.641871   -1.707313   -0.579701
C       1.567627   -1.714645    0.748535
C       0.655882   -0.641568    1.282517
C      -1.421921   -0.488584   -0.078162
O      -2.402335    0.207972   -0.129830
H       1.094584    1.882143    0.075251
H      -0.395144    1.947145   -0.889072
H      -0.492653    1.937527    0.869549
H       0.117889   -1.022770   -1.970317
H       1.406403    0.131530   -1.704271
H       2.253078   -2.375539   -1.176459
H       2.108926   -2.389780    1.402297
H       1.207078    0.111833    1.860078
H      -0.102344   -1.044576    1.967988
H      -1.508478   -1.601564   -0.088591
