17

N      -0.109116    1.257611    0.023691
C      -0.062927   -0.001319   -0.001611
C      -1.204158   -1.002019   -0.024970
C      -0.690440   -2.052348    1.023786
C       0.422995   -2.229078   -0.045349
C      -0.684598   -2.009127   -1.112533
N       1.055165   -0.893676   -0.016586
C       2.380615   -0.586401   -0.007008
O       2.830449    0.540861    0.016889
H       0.837225    1.643558    0.034065
H      -2.207476   -0.586543   -0.019310
H      -0.390984   -1.694606    2.010903
H      -1.349135   -2.918748    1.100642
H       1.140146   -3.048247   -0.059957
H      -1.342769   -2.871635   -1.227971
H      -0.379794   -1.611781   -2.082720
H       3.018882   -1.491820   -0.023707
