14

C      -0.090322    1.043599    0.984902
C       0.241236    0.308699   -0.311815
N       1.064308   -0.864861   -0.028651
C       1.924078   -1.227483   -0.851387
O       2.752187   -2.321609   -0.651631
C       3.538880   -2.361586   -1.742014
N       3.332552   -1.457404   -2.618700
O       2.264521   -0.694376   -2.069867
H      -0.592883    0.373032    1.687467
H       0.820305    1.414145    1.465015
H      -0.745750    1.897005    0.785075
H      -0.688372   -0.031329   -0.787456
H       0.728471    0.990903   -1.021355
H       4.283900   -3.138539   -1.812946
