12

N       0.034312    1.420133    0.151338
C      -0.073575    0.045244    0.052901
C      -1.162939   -0.783146    0.042943
N      -0.617681   -2.049133    0.001016
C      -1.317376   -3.271334   -0.030358
O      -0.806075   -4.350083   -0.066603
N       0.739106   -1.984415   -0.010344
N       1.062629   -0.735618    0.018305
H       0.953650    1.747200   -0.113513
H      -0.696390    1.942731   -0.308816
H      -2.224551   -0.610685    0.065634
H      -2.407615   -3.090608   -0.016707
