16

O      -0.127405    1.400868    0.006816
C       1.217503    0.881803   -0.008134
C       0.049430    0.005205    0.001298
C      -0.408863   -1.001260    1.059229
C      -1.898106   -1.276445    0.763756
N      -1.678909   -2.558042    0.011832
C      -1.913152   -1.272405   -0.728568
C      -0.430148   -0.995608   -1.052543
C      -0.202353   -2.138414   -0.001896
H       1.767852    1.047845   -0.933201
H       1.786401    1.042917    0.906524
H      -0.041529   -1.017160    2.081961
H      -2.764805   -1.118739    1.392719
H      -2.792349   -1.111334   -1.339061
H      -0.083512   -1.006020   -2.082546
H       0.594386   -2.876950   -0.011902
