15

O       0.040779   -0.028420    0.220330
C       0.005557    1.165496    0.044963
C      -1.312834    1.936403   -0.058657
N      -1.277622    2.951663   -1.102877
C      -0.181483    3.625227   -1.557437
O      -0.229064    4.448365   -2.451445
C       1.118649    3.268218   -0.883759
N       1.117285    3.327304    0.580121
C       1.230825    2.006977   -0.076319
H      -2.100285    1.211983   -0.275702
H      -1.513777    2.378591    0.928332
H      -2.150019    3.239342   -1.520572
H       1.991374    3.612713   -1.428034
H       2.031163    3.618005    0.917825
H       2.175305    1.472972   -0.058304
