22

C      -0.162857    1.542776    0.055080
C      -0.030049    0.014160    0.018871
C       0.685944   -0.505797   -1.204552
C       0.104039   -0.317378   -2.637885
C       0.887475   -1.574227   -3.004415
C       0.941880   -2.020856   -1.594603
N       2.203078   -1.608224   -2.263761
C       2.217179   -0.355256   -1.433514
C       2.865613    0.867304   -2.060511
H       0.816999    2.030333    0.068475
H      -0.706421    1.914710   -0.819652
H      -0.706545    1.866314    0.947729
H       0.498984   -0.330126    0.917618
H      -1.030193   -0.436988    0.064618
H      -0.970222   -0.524966   -2.650431
H       0.298551    0.619910   -3.168122
H       0.842239   -2.166071   -3.909067
H       0.791211   -2.972587   -1.101397
H       2.744444   -0.615214   -0.507282
H       2.381268    1.167753   -2.992944
H       2.844914    1.719728   -1.373294
H       3.913336    0.645570   -2.289507
