17

O       0.798878    0.207441   -0.672880
C       0.780125    1.400363   -0.692108
O       0.849365    2.138819    0.438981
C       0.926127    3.557090    0.295270
C       2.368276    4.016874    0.186059
O       2.862558    3.578232   -1.060214
C       4.256259    3.792942   -1.212098
C       4.687399    3.330504   -2.523116
C       5.067828    2.957263   -3.598741
H       0.689906    2.016736   -1.603928
H       0.364187    3.886925   -0.587139
H       0.459272    3.982230    1.186936
H       2.413093    5.116064    0.267294
H       2.954133    3.590999    1.015828
H       4.491846    4.864479   -1.098720
H       4.812099    3.258958   -0.423778
H       5.399331    2.621136   -4.550230
