18

C      -0.052758    1.582070    0.032746
C      -0.020323    0.042398    0.033796
C       0.747764   -0.536948    1.243554
N       2.149409   -0.140035    1.184608
C       2.893684   -0.514866    2.382716
C       4.302827   -0.131218    2.262923
N       5.417676    0.150713    2.157931
C      -1.376150   -0.514684    0.005793
N      -2.445883   -0.951885    0.000708
H       0.968713    1.961887    0.087628
H      -0.531312    1.961080   -0.872975
H      -0.611241    1.954429    0.896323
H       0.482285   -0.301722   -0.880879
H       0.314661   -0.130061    2.165275
H       0.604603   -1.630068    1.279654
H       2.595053   -0.554195    0.371222
H       2.463266    0.010644    3.244027
H       2.853112   -1.593006    2.621403
