19

C      -0.186642    1.563842    0.040986
C      -0.053994    0.040954   -0.003151
C      -1.386761   -0.653216    0.280732
C       0.698536   -0.505836   -1.292233
N       1.756730   -0.979908   -0.376682
C       2.930843   -1.577122   -0.035398
N       3.085697   -1.519021    1.276104
C       1.984310   -0.866293    1.798192
C       1.151992   -0.529422    0.759154
H       0.767020    2.053691   -0.175650
H      -0.928675    1.912335   -0.686244
H      -0.512794    1.890515    1.033694
H      -2.150029   -0.343502   -0.442058
H      -1.287423   -1.741490    0.234395
H      -1.748220   -0.392401    1.280672
H       0.190490   -1.312086   -1.827638
H       1.040012    0.256737   -1.996990
H       3.617352   -2.024487   -0.736573
H       1.886861   -0.698288    2.858720
