19

O       0.091501    1.393548   -0.037846
C       0.087641   -0.010974    0.147988
C      -1.320584   -0.542729    0.057666
C      -2.356324   -0.303257    1.171486
C      -2.896945   -1.754619    0.954936
O      -4.234435   -1.907161    0.551584
C      -1.769141   -2.026755   -0.103484
C      -2.143621   -1.626309   -1.528804
O      -1.898968   -0.222021   -1.247865
H      -0.374861    1.550362   -0.868365
H       0.721435   -0.519278   -0.596757
H       0.511999   -0.204960    1.138893
H      -1.920484   -0.144161    2.161580
H      -3.065801    0.501795    0.963614
H      -2.779786   -2.388734    1.836866
H      -4.444174   -1.199715   -0.067435
H      -1.131563   -2.896382    0.050556
H      -1.460686   -2.005049   -2.299058
H      -3.175962   -1.816246   -1.844922
