20

C       0.334600    1.715899    0.203779
C       1.841370    1.337185    0.046720
C       1.434318   -0.147952   -0.029809
C      -0.024458    0.218708    0.122300
N       0.471419   -0.428043   -1.076140
C       0.497170    0.212221   -2.372708
C       1.258956   -0.576991   -3.459338
O       0.071256   -0.697095   -4.268713
C      -0.739664   -0.074852   -3.251189
H       0.118346    2.135670    1.188218
H      -0.108376    2.368561   -0.554465
H       2.381362    1.742552   -0.814221
H       2.415554    1.558534    0.948598
H       1.991001   -0.980975    0.385928
H      -0.813618   -0.275953    0.678345
H       0.766492    1.274331   -2.348537
H       2.060924   -0.044007   -3.983753
H       1.627043   -1.550579   -3.113163
H      -1.445430   -0.778624   -2.793151
H      -1.283480    0.796266   -3.635440
