19

O       0.200036    0.356600    1.085532
C      -0.093811    0.130351   -0.297025
C      -1.439120   -0.567676   -0.410233
O      -1.833178   -0.971618   -1.746344
C      -2.096976   -2.301459   -1.270045
C      -0.828976   -2.940455   -0.808015
C      -1.573812   -1.995787    0.118844
C      -1.968579   -2.318840    1.528120
O      -0.885223   -2.145615    2.426611
H      -0.340955    1.092105    1.391742
H      -0.083013    1.068265   -0.867686
H       0.706785   -0.506473   -0.680653
H      -2.221963    0.077575    0.020082
H      -2.984252   -2.802820   -1.638661
H      -0.905953   -3.982235   -0.510727
H       0.109434   -2.669617   -1.283847
H      -2.831944   -1.695063    1.819665
H      -2.285335   -3.364456    1.611613
H      -0.439462   -1.319935    2.184276
