21

C      -0.003943    1.497643    0.374636
C       0.013972    0.028453   -0.059650
C       0.633127   -0.844718    1.038814
O      -1.365770   -0.324248   -0.241781
C       0.781956   -0.179894   -1.384557
C       0.184545    0.573909   -2.568223
O       0.888925    0.228522   -3.770966
C       0.225002   -0.449347   -4.722747
O       0.733805   -0.800922   -5.744575
H       1.012767    1.892355    0.458741
H      -0.559367    2.112080   -0.338367
H      -0.495730    1.592516    1.346353
H       0.060633   -0.744784    1.965297
H       0.632209   -1.901500    0.745283
H       1.670528   -0.559215    1.239088
H      -1.417380   -1.282233   -0.330865
H       1.831534    0.108199   -1.258492
H       0.780178   -1.251280   -1.625311
H      -0.880698    0.337529   -2.666492
H       0.285468    1.655971   -2.452308
H      -0.834156   -0.636616   -4.454346
