16

O      -0.104794    0.064841    0.385960
C       0.160203    0.983561   -0.341911
C       1.374808    1.877713   -0.157647
O       1.341696    2.871127   -1.148544
C       2.430747    3.769025   -1.086580
C       2.287693    4.769493   -2.199158
C       3.457814    5.459536   -2.753051
O       2.822849    4.402191   -3.470105
H      -0.464448    1.257544   -1.220116
H       1.352754    2.302904    0.860363
H       2.283698    1.255566   -0.226011
H       2.441835    4.290647   -0.113687
H       3.387823    3.234789   -1.194999
H       1.317106    5.263958   -2.244762
H       3.342682    6.455867   -3.176564
H       4.451623    5.232558   -2.368107
