22

C       0.058216    1.605608    0.071463
C       0.034612    0.066558    0.101349
C       0.827372   -0.452802    1.314578
C      -1.414534   -0.474271    0.102449
C      -2.288301   -0.083357    1.291065
O      -3.557100   -0.686002    1.076532
C       0.686459   -0.479152   -1.205657
C       2.077372   -0.071080   -1.391095
N       3.177051    0.259559   -1.524524
H       1.081145    1.978633   -0.036862
H      -0.533081    1.994893   -0.764886
H      -0.348931    2.027520    0.994458
H       0.428540   -0.052893    2.250904
H       0.790049   -1.546309    1.373801
H       1.878251   -0.154611    1.251343
H      -1.928531   -0.137839   -0.806878
H      -1.393195   -1.570540    0.057787
H      -1.839788   -0.435935    2.231896
H      -2.379536    1.011029    1.359280
H      -4.128140   -0.455171    1.814940
H       0.648158   -1.574676   -1.208933
H       0.111766   -0.140149   -2.075403
