16

C      -0.285347    1.484542   -0.042523
N       0.105302    0.089277   -0.004847
C       1.194699   -0.415076   -0.867331
C       1.794567   -1.173930    0.346794
N       2.786311   -0.412125    1.104413
C       1.860454    0.322019    1.832888
O       1.973120    1.267714    2.565125
C       0.689051   -0.497665    1.215044
H       0.542184    2.187814    0.149638
H      -0.712067    1.712380   -1.024946
H      -1.059069    1.663853    0.710753
H       0.827996   -1.038161   -1.690844
H       1.872824    0.349640   -1.272968
H       1.964751   -2.247113    0.283406
H       3.714725   -0.127298    0.817615
H      -0.007962   -0.996209    1.891079
