12

F      -0.011762    0.053756    0.003294
C      -0.021574    1.374606    0.010466
C      -1.243523    2.044329    0.031061
C      -1.160091    3.430360    0.037288
C      -2.427914    4.237298    0.059233
O      -2.471332    5.436787    0.066201
N       0.013386    4.082485    0.024427
C       1.096523    3.320144    0.005302
N       1.141882    1.978063   -0.002507
H      -2.186623    1.511777    0.041357
H      -3.349834    3.613814    0.068746
H       2.056993    3.827977   -0.005396
