23

C       0.955810   -2.855888    3.181526
C       0.393438   -2.344296    1.852999
C      -1.035611   -2.811076    1.611120
O      -1.468880   -2.287752    0.358612
C      -2.737995   -2.718747   -0.070987
C      -3.869111   -2.018267    0.649857
O      -3.738342   -0.611563    0.557644
C      -2.834441   -2.978151   -1.541951
C      -2.886695   -4.134562   -0.561023
H       1.980223   -2.505000    3.334881
H       0.355797   -2.508658    4.029887
H       0.971811   -3.950875    3.213603
H       0.413083   -1.248427    1.829958
H       1.016742   -2.683864    1.017915
H      -1.086422   -3.909975    1.595384
H      -1.689452   -2.466503    2.426663
H      -4.827546   -2.293524    0.197165
H      -3.904433   -2.342469    1.703720
H      -2.792818   -0.431891    0.628628
H      -3.742994   -2.684347   -2.055436
H      -1.922683   -2.858722   -2.115272
H      -2.012661   -4.773801   -0.505227
H      -3.830211   -4.645850   -0.400875
