18

C       0.367603    0.801247   -0.185246
O      -0.122143   -0.220376    0.665769
C      -1.392042   -0.650039    0.320879
C      -1.581115   -1.766337   -0.700421
C      -0.354810   -2.596098   -1.034773
C       0.097439   -3.176478    0.296193
N       1.143407   -3.852479    0.484427
O      -0.813559   -2.864106    1.277178
C      -1.816479   -2.013080    0.776202
H       1.380654    1.034721    0.148118
H       0.395857    0.478462   -1.234955
H      -0.251194    1.708138   -0.116802
H      -2.162442    0.123862    0.332408
H      -2.398313   -1.710259   -1.409116
H      -0.607407   -3.408703   -1.722230
H       0.465531   -2.032150   -1.484293
H       1.228342   -4.118322    1.466563
H      -2.780740   -2.190638    1.236013
