15

C      -0.028291    1.555342    0.036564
C      -0.006405    0.053727   -0.013137
C      -0.034519   -0.664595   -1.169626
N      -0.013150   -2.024673   -1.169969
C       0.038858   -2.847093   -0.022872
O       0.053878   -4.060265   -0.140639
C       0.068735   -2.083612    1.206643
C       0.046556   -0.726599    1.181552
F       0.074923   -0.044870    2.328734
H       0.862611    1.954080    0.533428
H      -0.069568    1.974333   -0.972075
H      -0.895028    1.926446    0.593888
H      -0.075151   -0.188455   -2.142356
H      -0.034871   -2.534320   -2.042060
H       0.109087   -2.627448    2.140657
