16

C       0.228264    1.416085   -0.044993
N       0.004342   -0.013356    0.034559
N      -0.410426   -0.731612   -0.998638
N      -0.496494   -1.965420   -0.571649
C      -0.123780   -1.947310    0.733885
N       0.202935   -0.723601    1.141238
C      -0.073474   -3.148796    1.580721
C      -1.136517   -4.185399    1.430101
N       0.221588   -4.450140    0.951843
H       1.271602    1.639766    0.187018
H      -0.006827    1.724937   -1.062586
H      -0.419947    1.931840    0.666506
H       0.386774   -2.991594    2.550601
H      -1.441568   -4.760010    2.300044
H      -1.916665   -3.988182    0.700652
H       0.252174   -4.318069   -0.057920
