20

C       0.063797    1.293590   -0.331343
C       0.210411   -0.136049    0.122206
O       1.544277   -0.639470    0.307607
C       0.674539   -0.582769    1.451337
C       1.079850    0.389955    2.538033
C       0.232577   -1.927523    1.967675
C       0.315402   -3.155148    1.102218
C       1.268204   -2.987342    2.259607
H       0.723751    1.970117    0.214262
H       0.304671    1.375337   -1.396711
H      -0.970485    1.629449   -0.197722
H      -0.436674   -0.837983   -0.408401
H       1.440528    1.335175    2.130334
H       0.233541    0.596604    3.202628
H       1.879873   -0.045627    3.145480
H      -0.604015   -1.872183    2.659853
H      -0.475500   -3.892564    1.181307
H       0.731533   -3.029580    0.109376
H       2.298512   -2.753205    2.014627
H       1.140129   -3.608552    3.138944
