19

C       0.192923    1.612554   -0.237956
C       0.106393    0.164449   -0.117377
C       0.044721   -1.034951   -0.028034
C      -0.059501   -2.480890    0.111828
C       0.071740   -3.068761    1.574325
C      -1.121034   -4.010733    1.280595
C      -1.515916   -3.097545    0.094658
C       0.823840   -3.175148   -0.822475
C       1.539959   -3.774911   -1.579174
H       1.001012    1.905599   -0.917278
H      -0.738719    2.036320   -0.629165
H       0.388596    2.082790    0.732168
H       1.036269   -3.511060    1.826317
H      -0.179065   -2.296573    2.304521
H      -0.786755   -4.993753    0.941041
H      -1.858211   -4.144474    2.074174
H      -2.241532   -2.333935    0.382308
H      -1.826324   -3.562977   -0.841540
H       2.178171   -4.289375   -2.253964
