14

N      -0.029908    1.220110    0.007157
C      -0.029320   -0.032884    0.000821
C      -1.262896   -0.959927    0.002727
C      -0.594704   -2.300214   -0.007722
C       0.737920   -2.087835   -0.013880
N       1.363417   -3.295296   -0.023551
C       0.321880   -4.218063   -0.022366
N      -0.863585   -3.648044   -0.013209
O       1.171843   -0.797803   -0.009661
H       0.918847    1.596532    0.003918
H      -1.873078   -0.750503    0.887846
H      -1.882592   -0.741509   -0.873564
H       2.350021   -3.489872   -0.029937
H       0.517304   -5.278910   -0.028757
