18

C       0.051234    1.472974    0.035304
C      -0.005401   -0.022586   -0.015716
C      -0.109531   -0.777150   -1.122582
C       0.061543   -2.239706   -0.865889
O       1.387009   -2.389342   -0.229637
C       0.760871   -2.246375    1.026116
C      -0.618862   -2.683257    0.532445
N      -1.270692   -1.642691    1.309102
C       0.000182   -0.839108    1.254725
H       1.002919    1.811735    0.464809
H      -0.043811    1.912193   -0.961614
H      -0.741069    1.886702    0.671629
H      -0.208705   -0.374747   -2.125003
H      -0.039498   -2.898889   -1.728118
H       1.332792   -2.641560    1.865633
H      -1.039772   -3.689587    0.560626
H      -2.059894   -1.183427    0.854989
H       0.212299   -0.271778    2.163359
