15

C      -0.013090    1.437999    0.020269
N       0.011695   -0.006911   -0.016976
C       0.057583   -0.807211   -1.155568
C       0.071608   -2.125748   -0.861303
C       0.032216   -2.221012    0.585509
N       0.025882   -3.214374    1.399850
O       0.065387   -4.421555    0.724247
C      -0.007038   -0.807169    1.128976
O      -0.045966   -0.404474    2.267403
H       0.886053    1.865230   -0.437127
H      -0.895349    1.835810   -0.493043
H      -0.050796    1.729486    1.071326
H       0.077044   -0.333242   -2.127603
H       0.105074   -2.947713   -1.554907
H       0.055897   -5.065544    1.442091
