17

O      -0.129885   -0.282765   -0.032067
C      -0.010927    0.920881    0.025389
C       1.315022    1.639156   -0.200197
C       2.523505    0.747661    0.026559
C       3.923279    1.370703   -0.171135
C       4.154512    0.951044    1.294250
O       2.781988    0.530078    1.435090
C      -1.149788    1.787299    0.282331
C      -2.078703    2.524249    0.490316
H       1.307479    1.996997   -1.240722
H       1.367901    2.529163    0.435630
H       2.377322   -0.207338   -0.490874
H       4.559420    0.900988   -0.922405
H       3.911630    2.450940   -0.333366
H       4.852879    0.115178    1.429225
H       4.415205    1.747085    2.001015
H      -2.911348    3.157738    0.678838
