21

C       0.231905    1.531622    0.185789
C       0.048777    0.023247    0.029688
O       0.801222   -0.693581    1.009832
C      -1.431743   -0.391117    0.063099
C      -1.620960   -1.881961   -0.196646
C      -3.044764   -2.526804   -0.184509
C      -2.724573   -3.286120   -1.508465
C      -1.492165   -2.377840   -1.647062
O      -0.790121   -2.061414   -2.565718
H       1.295116    1.786158    0.185856
H      -0.255925    2.076228   -0.628816
H      -0.205588    1.882597    1.129714
H       0.471820   -0.297780   -0.928051
H       0.531358   -0.369620    1.876865
H      -1.855179   -0.130463    1.044560
H      -1.988170    0.191765   -0.681969
H      -0.928945   -2.446266    0.439965
H      -3.287147   -3.143499    0.681850
H      -3.832899   -1.781549   -0.320027
H      -2.436595   -4.330249   -1.348047
H      -3.450261   -3.246753   -2.324264
