14

N       0.003841    1.239437   -0.451324
C       0.034581    0.055949   -0.056907
O       1.048784   -0.690242    0.531925
C       0.232531   -1.889992    0.577771
C      -0.609790   -1.977707    1.848373
O      -1.649970   -1.151864    1.263956
C      -0.969712   -1.098570   -0.019562
C      -1.779322   -1.412904   -1.160108
C      -2.444164   -1.683887   -2.123168
H       0.886268    1.723668   -0.277581
H       0.731749   -2.753537    0.145664
H      -0.986070   -2.982269    2.072898
H      -0.162279   -1.529359    2.740176
H      -3.036850   -1.911538   -2.975151
