16

C      -0.149393    1.582762   -0.063676
C       0.069221    0.089042    0.052469
O       1.111208   -0.436450   -0.830515
C       1.724016   -1.159670    0.242921
C       2.909163   -0.446772    0.965552
O       2.630173    0.950139    0.981848
C       1.967708    0.136284    1.949248
C       0.753135   -0.564198    1.284887
H       0.766731    2.135558    0.139652
H      -0.493024    1.828412   -1.073901
H      -0.928602    1.898107    0.639640
H      -0.869720   -0.438952   -0.167547
H       1.843868   -2.230183    0.057518
H       3.948958   -0.743259    1.049595
H       2.104126    0.400469    2.991830
H       0.153294   -1.186377    1.946998
