14

O      -0.229393    1.379778    0.189782
C      -0.058380    0.051851    0.051431
C       0.053015   -0.650747   -1.129797
C       0.051279   -0.238921   -2.564224
C       1.436149   -0.416992   -3.179768
O       1.682335   -1.186390   -4.070285
N       0.211438   -1.931659   -0.681598
N       0.188657   -2.012886    0.651137
N       0.023554   -0.793844    1.103866
H      -0.291517    1.559262    1.136586
H      -0.667282   -0.809310   -3.161578
H      -0.220379    0.821806   -2.609001
H       2.227029    0.208850   -2.711030
H       0.329900   -2.773275   -1.224847
