22

C      -0.170508    1.617343   -0.020763
C      -0.013734    0.105751    0.002085
C       1.214543   -0.545998   -0.653539
C       1.548831   -0.664934   -2.111339
C       2.165936   -0.225925    0.549864
C       2.535092   -1.700215    0.626713
N       1.060795   -1.808903    0.252665
C       0.758458   -0.566042    1.149125
C       0.359936   -0.717153    2.587673
H       0.768917    2.125629    0.222432
H      -0.491626    1.965995   -1.008321
H      -0.924236    1.946981    0.702549
H      -0.952192   -0.409474   -0.241085
H       1.677121    0.326179   -2.560061
H       2.474678   -1.227581   -2.269513
H       0.744029   -1.179998   -2.646110
H       2.778565    0.667673    0.714803
H       3.211800   -2.108492   -0.130791
H       2.772548   -2.127914    1.606054
H       1.102205   -1.287737    3.155345
H       0.254035    0.263689    3.063959
H      -0.599545   -1.239137    2.664524
