20

C      -0.322834    1.444359   -0.003782
C       0.149846   -0.011926   -0.015513
N       0.865567   -0.386577   -1.230293
C       2.192297   -0.702734   -1.189970
O       2.854372   -1.108048   -2.121184
C       0.080984   -0.611380   -2.460947
C       0.598399    0.203699   -3.660751
C      -0.036767   -2.039680   -2.774097
C      -0.174776   -3.202975   -3.039692
H       0.527316    2.127738   -0.086709
H      -1.008020    1.654571   -0.831248
H      -0.853110    1.661718    0.928758
H       0.822349   -0.186099    0.830120
H      -0.702575   -0.690004    0.120268
H       2.619436   -0.536817   -0.180104
H      -0.926061   -0.247585   -2.227100
H      -0.077369    0.069174   -4.509453
H       0.628981    1.265364   -3.399059
H       1.597408   -0.127004   -3.939540
H      -0.272475   -4.233932   -3.274956
