17

C      -0.053023    1.545066   -0.001062
N       1.464906    1.307170   -0.048846
C       1.291851    0.176887    0.995760
C       1.851838   -0.983145    0.165371
C       0.816499   -2.138289    0.331723
C      -0.575571   -1.380197    0.320730
C       0.001830    0.014102    0.151794
C       1.205576   -0.007953   -0.824651
H      -0.374590    2.140017    0.860016
H      -0.459425    1.958252   -0.930009
H       1.360417    0.383267    2.065839
H       2.909243   -1.251656    0.142521
H       0.888713   -2.862303   -0.485441
H       0.971770   -2.684380    1.267054
H      -1.213535   -1.699282   -0.508204
H      -1.130060   -1.520475    1.252831
H       1.171700   -0.021044   -1.916002
