15

O       0.035203    0.014991    0.320518
C       0.009725    1.159555   -0.038582
O      -1.181884    1.763907   -0.279283
C      -1.318704    2.964834   -1.010040
C      -1.156700    4.296180   -0.347575
C      -0.117641    3.805595   -1.341602
C       1.198895    3.315999   -0.820966
O       1.315132    3.179241    0.588985
C       1.259338    1.978608   -0.198968
H      -2.100268    2.844169   -1.751777
H      -1.823523    5.096818   -0.645137
H      -0.849565    4.295443    0.691116
H      -0.080290    4.259061   -2.325857
H       2.092143    3.693542   -1.315153
H       2.166292    1.381480   -0.204266
