14

O      -0.015893    0.010209   -0.123654
C      -0.022522    1.210441   -0.050052
C      -1.239525    2.117422   -0.005070
N      -1.278313    2.938321    1.238958
C      -0.732371    3.505093   -0.027771
C       0.757043    3.415844   -0.064322
C       1.177909    2.133735   -0.034838
C       2.503949    1.652602    0.016746
C       3.621668    1.206933    0.057834
H      -2.162655    1.796035   -0.471118
H      -2.238136    3.265069    1.358963
H      -1.258369    4.315806   -0.517438
H       1.405330    4.283123   -0.059429
H       4.607582    0.814237    0.096739
