14

N       0.062619    1.380117    0.245038
C      -0.026051   -0.001610    0.080871
N      -1.108372   -0.723051    0.114237
C      -0.676426   -2.054068    0.011129
C      -1.503393   -3.194581    0.002839
C      -2.151748   -4.212546   -0.011788
C       0.692411   -2.075666   -0.099450
O       1.593330   -3.064748   -0.238062
N       1.112970   -0.770768   -0.057888
H       0.520907    1.847381   -0.530417
H      -0.870651    1.758507    0.357067
H      -2.743634   -5.093486   -0.022828
H       1.102259   -3.896688   -0.255017
H       2.069458   -0.463208   -0.001867
