15

O       0.093500    1.381076    0.110384
C       0.061516   -0.026679    0.032219
C      -1.363432   -0.582905   -0.044066
O      -2.089319   -0.012206   -1.139902
C      -1.498184   -1.335295   -1.293447
C      -0.172137   -1.303151   -1.974625
C       0.703481   -0.573270   -1.261150
C       2.028285   -0.237199   -1.614439
C       3.169039    0.055581   -1.869728
H      -0.504851    1.696799   -0.580176
H       0.592672   -0.394232    0.916412
H      -1.937710   -0.779866    0.856087
H      -2.211866   -2.138155   -1.443117
H       0.028648   -1.770015   -2.930221
H       4.170935    0.316661   -2.105726
