12

C      -0.207270    1.451965    0.018628
N       0.179810    0.059747    0.089546
C       0.704101   -0.535138   -0.877803
O       0.992463   -1.866065   -0.761348
C       1.779695   -2.537254   -1.661696
O       2.067752   -3.672292   -1.477916
O       2.186844   -1.842049   -2.735716
N       1.644932   -0.444744   -3.005443
N       0.994576    0.076129   -2.131979
H       0.352633    2.000587    0.783348
H      -0.045790    1.920846   -0.956909
H      -1.264954    1.523961    0.291642
