23

C      -0.217776    1.563758    0.013019
C      -0.004031    0.057577    0.001264
O      -1.284649   -0.547733    0.011676
C      -1.356452   -1.983125    0.004658
C      -0.725745   -2.572344   -1.274557
C      -0.701162   -2.585759    1.265132
C      -2.794600   -2.287093    0.016995
C      -3.963283   -2.573849    0.026613
C      -5.381299   -2.904297    0.037460
H       0.744077    2.085732    0.005418
H      -0.791525    1.875426   -0.864279
H      -0.771594    1.864475    0.906793
H       0.567926   -0.232168   -0.892889
H       0.587611   -0.243221    0.878803
H       0.358301   -2.427303   -1.285898
H      -0.923440   -3.645975   -1.327232
H      -1.158123   -2.095737   -2.157636
H      -1.116538   -2.118723    2.161382
H      -0.897626   -3.659967    1.310155
H       0.382879   -2.440449    1.257152
H      -5.535901   -3.989023    0.035830
H      -5.877311   -2.500805    0.927065
H      -5.892100   -2.496031   -0.841544
