19

C      -0.350933    1.610729   -0.046160
C       0.016144    0.130797    0.013136
C      -1.195777   -0.765716   -0.223564
C       1.265569   -0.248930   -0.857960
N       1.970421   -0.589923    0.376610
C       0.864422   -0.264060    1.271290
C       3.217819   -1.022410    0.653540
O       3.639965   -1.238623    1.772108
H       0.524361    2.246039    0.123898
H      -0.772669    1.872328   -1.023129
H      -1.097800    1.858002    0.716348
H      -1.641716   -0.572525   -1.205707
H      -0.922599   -1.825077   -0.180421
H      -1.967155   -0.587218    0.533707
H       1.113790   -1.094883   -1.538770
H       1.711090    0.582400   -1.417095
H       1.087508    0.551917    1.967245
H       0.492397   -1.121778    1.842149
H       3.821632   -1.160517   -0.268027
