15

O       0.283471    1.219380   -0.352124
C       0.014855   -0.132640   -0.005236
C       0.604185   -0.529561    1.328235
C      -0.326703   -0.844647    2.233335
C      -1.717719   -0.804573    1.658495
C      -1.486706   -0.418079    0.179052
O      -1.864581   -1.775592   -0.237286
C      -2.165147   -2.149018    1.049041
O      -2.611469   -3.181945    1.425167
H       0.184813    1.750983    0.445663
H       0.399670   -0.733336   -0.836758
H       1.673997   -0.523362    1.502567
H      -0.136141   -1.146030    3.256584
H      -2.471267   -0.298220    2.263785
H      -2.129923    0.322975   -0.295226
