27

C      -0.111716    1.560399    0.154118
C      -0.023555    0.035697    0.052659
C       0.692045   -0.440474   -1.218021
C       0.726454   -1.970125   -1.347744
O      -0.603195   -2.496520   -1.364833
C       1.574584   -2.534825   -2.529126
C       3.032647   -2.051584   -2.417945
C       1.555499   -4.072836   -2.432567
C       0.993898   -2.108340   -3.890661
H       0.883808    2.018961    0.154330
H      -0.667132    1.983560   -0.690798
H      -0.619956    1.870106    1.072723
H       0.505069   -0.360804    0.929685
H      -1.026328   -0.403080    0.081678
H       0.191109   -0.011246   -2.098462
H       1.713156   -0.043321   -1.226654
H       1.159627   -2.379757   -0.424772
H      -1.076287   -2.066927   -2.085528
H       3.441165   -2.247970   -1.419870
H       3.663152   -2.580766   -3.140472
H       3.134076   -0.981104   -2.619206
H       0.531179   -4.451350   -2.442399
H       2.103069   -4.520539   -3.268885
H       2.028568   -4.412641   -1.504139
H       1.006195   -1.021651   -4.022563
H       1.580600   -2.542603   -4.706992
H      -0.036651   -2.458635   -4.018490
