20

C      -0.076668    1.126308    0.602064
O      -0.225579    0.182871   -0.441472
C      -1.387782   -0.579011   -0.337617
C      -1.616917   -1.575979   -1.514206
C      -1.740290   -2.695820   -0.477092
N      -0.429891   -2.753473    0.208777
C      -1.455338   -1.766891    0.657439
C      -1.941767   -1.767201    2.071070
O      -0.994207   -1.225424    2.987028
H       0.879097    1.631636    0.445413
H      -0.883105    1.877203    0.580060
H      -0.081778    0.646119    1.589531
H      -2.269368    0.065493   -0.185031
H      -2.525527   -1.371350   -2.082850
H      -0.762700   -1.679113   -2.185456
H      -2.391995   -3.560782   -0.501139
H      -0.477353   -3.538745    0.861213
H      -2.835225   -1.141121    2.170067
H      -2.226724   -2.793535    2.359022
H      -0.153390   -1.668209    2.826846
