15

N      -0.107215    1.249395   -0.345518
C      -0.022644    0.025771   -0.001352
N       1.093866   -0.676960    0.417882
C       1.094269   -2.126620    0.619068
C      -0.350988   -2.617506    0.565652
O      -0.960063   -2.101524   -0.648702
C      -1.266674   -0.840879    0.023357
C      -1.268817   -1.647845    1.340507
O      -1.826536   -1.623931    2.389619
H       0.799670    1.720933   -0.301054
H       1.988036   -0.233587    0.273855
H       1.672782   -2.636092   -0.163446
H       1.534297   -2.380687    1.591805
H      -0.449474   -3.697985    0.684473
H      -2.146972   -0.325933   -0.354816
