25

C      -0.514854    1.243673   -0.739395
O      -0.657335   -0.155858   -0.707124
C      -0.880123   -0.659272    0.590283
C      -1.010105   -2.183546    0.521949
O      -1.064337   -2.712381    1.844452
C      -2.199663   -2.626479   -0.333077
C      -2.355311   -4.149305   -0.494539
C      -3.722701   -4.485767   -1.104407
C      -1.225914   -4.762577   -1.334743
H      -0.340162    1.532182   -1.778793
H      -1.420371    1.755026   -0.375493
H       0.336893    1.581360   -0.128108
H      -0.047780   -0.401064    1.264240
H      -1.801128   -0.224874    1.023827
H      -0.078715   -2.575080    0.099143
H      -1.920413   -2.474800    2.218716
H      -3.113542   -2.217948    0.127532
H      -2.115053   -2.146863   -1.315483
H      -2.308683   -4.591336    0.509038
H      -3.823843   -4.050758   -2.106282
H      -3.858934   -5.568292   -1.198761
H      -4.542741   -4.097001   -0.490836
H      -0.241348   -4.593170   -0.889222
H      -1.358396   -5.845120   -1.433672
H      -1.214584   -4.335544   -2.344977
