18

C      -0.081875    1.572001    0.044597
C       0.028071    0.041864    0.030102
C       1.132830   -0.598251   -0.910578
C       1.762147   -1.283174    0.306337
C       2.187646   -0.256738    1.314950
C       0.735433   -0.637526    1.233600
C      -1.279123   -0.555568   -0.209383
C      -2.364181   -1.039547   -0.397691
H       0.891232    2.034860    0.229769
H      -0.457079    1.938420   -0.915920
H      -0.774079    1.901772    0.825153
H       0.697199   -1.287876   -1.633714
H       1.769778    0.119849   -1.438135
H       2.143195   -2.296430    0.320799
H       2.704417   -0.643932    2.187491
H       2.538206    0.721490    0.995606
H       0.204153   -1.066255    2.074260
H      -3.320602   -1.468016   -0.567538
