18

O       0.106168    0.023334    0.073068
C       0.071048    1.220071    0.194625
C      -1.100245    2.230753    0.273346
C      -0.068541    3.319851   -0.053274
C       0.945568    3.372267    1.028329
C       1.107408    2.279039   -0.024837
C       2.337636    2.138947   -0.845473
C       3.170304    0.908932   -0.748756
N       2.398321    1.190510   -1.970874
H      -1.822954    2.026470   -0.521387
H      -1.630139    2.328917    1.225428
H      -0.199957    4.104813   -0.785884
H       1.701614    4.148006    0.950597
H       0.676010    3.118349    2.050342
H       2.843456    3.081498   -1.050257
H       4.249210    0.979483   -0.855779
H       2.816268    0.117090   -0.096016
H       1.566415    0.603970   -1.966581
