19

C      -0.062195    1.575901    0.064066
C      -0.038461    0.056813   -0.069922
C      -1.457545   -0.548028   -0.056536
O      -2.143777   -0.264757    1.149992
N       0.673840   -0.393316   -1.262932
C       0.818910    0.217803   -2.466884
C       1.491904   -0.663736   -3.288164
C       1.705385   -1.797905   -2.481569
N       1.206823   -1.634677   -1.258523
H       0.948076    1.991577    0.100715
H      -0.604984    2.045870   -0.762848
H      -0.588444    1.833509    0.985231
H       0.516468   -0.374092    0.770935
H      -2.051423   -0.101276   -0.862063
H      -1.383814   -1.625894   -0.248785
H      -1.774116   -0.824895    1.840000
H       0.453151    1.215291   -2.645426
H       1.788891   -0.502244   -4.311578
H       2.206445   -2.720991   -2.734426
