18

C       0.007400    1.553181   -0.035120
C       0.029131    0.054852   -0.053894
C       0.621102   -0.885228   -1.154931
C      -0.445601   -1.882967   -0.764285
C       0.907294   -1.872270   -0.045975
C       0.605352   -0.873643    1.093689
C      -0.832753   -1.164176    1.587250
C      -1.232830   -0.888085    0.117612
H       1.022756    1.965980   -0.066122
H      -0.540608    1.953706   -0.896270
H      -0.477596    1.931010    0.872652
H       1.120488   -0.704813   -2.098199
H      -0.808300   -2.741712   -1.313584
H       1.576051   -2.722849   -0.047647
H       1.414080   -0.573918    1.760362
H      -1.051501   -2.148092    2.013757
H      -1.196216   -0.380363    2.260102
H      -2.241674   -0.602649   -0.180866
