19

C       0.213272   -1.029355    0.668879
C       0.072573    0.110320    0.302626
C      -0.034914    1.454556   -0.155603
C      -1.154858    2.167278    0.048701
C      -1.369702    3.573408   -0.429656
C      -0.093024    4.303958   -0.804147
C       1.043040    4.385147    0.187118
C       1.172372    3.515997   -1.039997
C       1.162077    2.003750   -0.910447
H       0.319206   -2.033363    0.997090
H      -1.980395    1.697835    0.575925
H      -2.040926    3.545423   -1.302249
H      -1.921083    4.137583    0.335715
H      -0.246043    5.178172   -1.429646
H       1.622862    5.300266    0.234058
H       0.911308    3.888350    1.143401
H       1.835453    3.884629   -1.817032
H       2.081634    1.655939   -0.423420
H       1.171405    1.551255   -1.911909
