22

C       0.340792    1.516447   -0.243782
C       0.187581    0.023159   -0.067506
N       1.386667   -0.813495   -0.244387
C       0.738215   -0.768912    1.080702
C       1.553164   -0.111514    2.177767
C      -0.069276   -1.959493    1.594032
O      -1.175552   -1.508881    2.394265
C      -0.593604   -2.963651    0.557556
O      -1.394248   -3.934350    1.195076
H       1.309688    1.866661    0.115515
H       0.267926    1.778802   -1.304640
H      -0.446537    2.059534    0.290576
H      -0.733672   -0.365420   -0.502730
H       1.161073   -1.667240   -0.747006
H       2.068687    0.781729    1.824177
H       0.907116    0.158404    3.018742
H       2.313668   -0.808726    2.546527
H       0.549252   -2.527085    2.299527
H      -1.634822   -0.830148    1.885174
H      -1.161051   -2.445011   -0.235306
H       0.238631   -3.493482    0.080589
H      -1.901226   -3.444816    1.857416
