22

C       0.786284   -0.381081   -1.283143
C      -0.175928   -0.329030   -0.088711
C      -1.292332   -1.371195   -0.238844
C       0.612774   -0.485702    1.225553
C      -0.195444   -0.303075    2.508984
C      -0.826822   -1.508696    3.194517
C       0.369009   -0.851965    3.813041
C      -0.916788    0.942821    2.604889
N      -1.490540    1.946142    2.667374
H       1.286135   -1.355577   -1.344244
H       0.250794   -0.224989   -2.224848
H       1.562540    0.387563   -1.207480
H      -0.642081    0.665400   -0.074784
H      -0.883566   -2.389393   -0.238373
H      -2.027025   -1.302156    0.567848
H      -1.825417   -1.231327   -1.184589
H       1.074557   -1.481283    1.260288
H       1.436886    0.238568    1.231510
H      -1.790823   -1.373282    3.670135
H      -0.695161   -2.463040    2.698063
H       1.329996   -1.349592    3.743940
H       0.225379   -0.263788    4.711279
