20

C      -0.672080    1.118052    0.377000
C      -0.785841   -0.198528   -0.402441
C       0.387673   -0.414774   -1.332829
O       1.684026   -0.636065   -0.737601
C       1.096649   -1.707290   -1.490924
C       0.761066   -2.977043   -0.754257
C       0.403066    0.517390   -2.539312
N       1.650522    0.875795   -2.943409
O      -0.625663    0.868636   -3.086953
H       0.244711    1.138587    0.974112
H      -0.660875    1.976030   -0.301870
H      -1.522477    1.239767    1.053841
H      -0.869304   -1.035337    0.294874
H      -1.687466   -0.188807   -1.021918
H       1.582460   -1.865295   -2.455761
H       0.325749   -2.778914    0.226139
H       0.057888   -3.578911   -1.339462
H       1.669047   -3.571386   -0.607996
H       2.432690    0.678329   -2.340624
H       1.739098    1.542989   -3.691351
