17

C       0.086511    1.517480   -0.181435
C       0.027211    0.012038   -0.055670
C       0.352334   -0.631745    1.258429
N       1.326478   -0.670520    0.159309
C       1.492400   -1.947005   -0.448626
N       0.671662   -2.626466   -1.131029
C      -0.684056   -2.127761   -1.314030
C      -0.963867   -0.673568   -0.949166
O      -1.915335   -0.081566   -1.407021
H       0.837458    1.925131    0.498659
H       0.346686    1.809525   -1.202717
H      -0.889561    1.949655    0.050844
H       0.611655    0.012907    2.093092
H      -0.140136   -1.563052    1.526241
H       2.493922   -2.347532   -0.288802
H      -0.984390   -2.262566   -2.358762
H      -1.364865   -2.769145   -0.736005
