16

C       0.223275    1.514300   -0.025570
C      -0.108053    0.035328    0.070824
O      -0.374067   -0.510585    1.114661
C      -0.125707   -0.707297   -1.258552
O      -0.107642   -2.145356   -1.159564
C      -1.322971   -2.231630   -1.911444
C      -2.452323   -1.581172   -1.184247
C      -1.483099   -0.732043   -1.987961
H       1.293195    1.637245   -0.232414
H      -0.318732    1.989742   -0.850458
H      -0.018016    2.009396    0.915569
H       0.687176   -0.358994   -1.909099
H      -1.401324   -3.015328   -2.655075
H      -3.428509   -1.687664   -1.647181
H      -2.442842   -1.556101   -0.099348
H      -1.775172   -0.086236   -2.804070
