25

C      -0.830509    1.688630    1.465018
C      -0.377508    0.257463    1.161649
C      -0.173369   -0.046547   -0.336473
C       0.965535    0.769083   -0.967358
C       0.103599   -1.526064   -0.513174
O      -0.966933   -2.444836   -0.258872
C      -0.412316   -2.397115   -1.588185
C      -1.348657   -1.892433   -2.665474
C       0.381957   -3.629137   -1.972188
H      -0.079200    2.429304    1.173694
H      -1.758638    1.930350    0.934496
H      -1.018863    1.818252    2.535347
H       0.556392    0.044385    1.700378
H      -1.122357   -0.448071    1.546889
H      -1.108315    0.198765   -0.853436
H       1.920380    0.559845   -0.470127
H       1.083579    0.527629   -2.028701
H       0.780651    1.843740   -0.890352
H       1.051955   -1.837001   -0.061693
H      -1.954140   -1.053378   -2.320818
H      -0.786982   -1.579307   -3.552569
H      -2.030238   -2.693934   -2.971438
H      -0.292117   -4.451195   -2.237616
H       1.020801   -3.427988   -2.839253
H       1.012711   -3.959567   -1.143459
