21

C       0.162886    1.506919    0.014603
C      -0.031109    0.005174    0.236463
C      -1.282117   -0.544283   -0.463604
C      -1.459551   -2.023569   -0.235096
O      -1.879972   -2.436251    1.065633
C      -2.778452   -2.667999   -0.037210
C      -4.017649   -1.939186   -0.061068
C      -5.076511   -1.365397   -0.095439
C      -6.352424   -0.666919   -0.126971
H       1.057882    1.872624    0.527340
H       0.269961    1.741004   -1.050664
H      -0.693652    2.075995    0.392594
H       0.854426   -0.537238   -0.120589
H      -0.109625   -0.207565    1.308982
H      -2.174620   -0.018890   -0.108144
H      -1.213838   -0.364136   -1.545367
H      -0.675400   -2.656838   -0.658752
H      -2.862637   -3.720255   -0.310743
H      -6.425417   -0.006638   -0.998191
H      -7.189788   -1.371785   -0.171227
H      -6.484347   -0.050570    0.769052
