21

C      -0.607196    1.286467   -0.045864
C       0.210135   -0.000183    0.094520
C       0.592303   -0.605973   -1.254549
N       1.357680   -1.851307   -1.074790
C       1.717137   -2.525317   -2.258313
C       2.840113   -2.494964   -3.058650
C       2.637833   -3.429370   -4.115177
C       1.396971   -3.992772   -3.937740
N       0.847691   -3.439270   -2.806336
H      -0.053123    2.051522   -0.600515
H      -1.544834    1.103797   -0.582348
H      -0.860750    1.703495    0.933249
H       1.125210    0.207882    0.666522
H      -0.347836   -0.747234    0.670750
H      -0.313904   -0.850862   -1.821236
H       1.144944    0.135091   -1.857337
H       2.186831   -1.663663   -0.522709
H       3.703512   -1.865276   -2.904625
H       3.322831   -3.652756   -4.918807
H       0.861813   -4.731210   -4.512293
H      -0.019519   -3.705669   -2.373376
