16

O      -0.081477   -0.023808    0.148605
C       0.010137    1.188487    0.200239
C       1.235977    1.933226    0.062267
C       1.345638    3.288500    0.016997
N       2.598626    3.721838   -0.289757
C       3.521031    2.594739   -0.380156
C       4.221341    2.147843    0.918834
O       3.330002    1.027821    1.078849
C       2.611684    1.350454   -0.144158
H      -0.894352    1.823202    0.357380
H       0.550982    4.013504    0.152922
H       2.899878    4.674451   -0.176801
H       4.141988    2.654641   -1.275864
H       5.264650    1.829504    0.794741
H       4.158448    2.861023    1.750546
H       2.642884    0.513011   -0.845196
