18

C      -0.017027    1.430989   -0.043123
N       0.031556   -0.007388    0.139441
C      -1.187945   -0.692788    0.077975
C      -2.473084   -0.199470    0.070009
N      -3.340714   -1.281310   -0.040098
C      -2.599295   -2.444006   -0.026899
O      -3.194935   -3.675466   -0.038505
C      -1.268045   -2.123447    0.020040
N      -0.146688   -2.980953   -0.083250
H       0.999364    1.832777   -0.045085
H      -0.522100    1.742137   -0.973671
H      -0.555875    1.888259    0.794628
H       0.721452   -0.452310   -0.454824
H      -2.845389    0.809781    0.099775
H      -4.308645   -1.260768    0.232336
H      -3.454637   -3.896064   -0.941278
H      -0.447805   -3.949711   -0.092055
H       0.471795   -2.861623    0.714440
