13

C       0.007702    1.463749    0.004872
N      -0.005420    0.011431    0.018267
C      -0.119485   -0.816661   -1.066095
N      -0.099853   -2.083143   -0.736673
C       0.034191   -2.085620    0.637164
C       0.093969   -0.795219    1.118290
C       0.097157   -3.279713    1.403701
N       0.150934   -4.237382    2.051914
H       0.946510    1.845660    0.415128
H      -0.089445    1.806549   -1.026348
H      -0.826482    1.863267    0.588005
H      -0.213473   -0.425619   -2.068647
H       0.195275   -0.403483    2.116549
