17

N       0.180966    1.418394    0.025308
C      -0.013560    0.016001    0.014474
C      -1.103000   -0.822828   -0.049824
C      -2.595167   -0.827752   -0.127179
O      -2.951644   -2.216738   -0.202614
C      -1.809212   -3.082042   -0.088791
C      -0.637056   -2.156213   -0.027218
C       0.733664   -2.132317    0.051308
N       1.095803   -0.804527    0.075163
H      -0.219017    1.857659   -0.797463
H      -0.252119    1.851854    0.834616
H      -3.077728   -0.376875    0.754306
H      -2.994206   -0.314512   -1.014680
H      -1.916447   -3.706032    0.811433
H      -1.793580   -3.756921   -0.956366
H       1.475134   -2.913477    0.091585
H       2.033448   -0.442075    0.118627
