17

C      -0.014303    1.488887   -0.362943
C       0.007881    0.012097   -0.045364
O      -1.166666   -0.668127   -0.366155
C       1.298839   -0.817350   -0.203568
C       2.578277   -0.219807   -0.636992
O       3.055682    0.819460   -0.236538
C       0.660575   -0.542664    1.182267
C       1.312357    0.318179    2.213167
O       1.272401    0.038991    3.387420
H       0.942578    1.968017   -0.156566
H      -0.235857    1.636629   -1.427048
H      -0.800074    1.980589    0.217838
H      -1.397503   -0.456205   -1.278237
H       1.118817   -1.821731   -0.571671
H       3.099704   -0.809931   -1.422233
H       0.163146   -1.407008    1.609416
H       1.827251    1.223437    1.848066
