20

C      -0.191880    1.465554   -0.250888
N      -0.168495    0.082322    0.197291
C      -1.225997   -0.597729    0.176601
C      -1.360167   -2.037521    0.621029
C      -2.669709   -2.495883   -0.039050
C      -3.451829   -1.180911   -0.200672
C      -4.395921   -0.861224    0.956602
O      -4.943210    0.433003    0.838297
O      -2.449258   -0.139568   -0.262173
H       0.734063    1.677279   -0.794639
H      -1.045700    1.714305   -0.891950
H      -0.210195    2.134892    0.618698
H      -0.483733   -2.617208    0.331171
H      -1.427258   -2.070966    1.714018
H      -2.473370   -2.939176   -1.018883
H      -3.221056   -3.229076    0.554743
H      -4.009235   -1.125695   -1.140303
H      -5.233464   -1.567504    0.947917
H      -3.860920   -0.991910    1.913060
H      -4.198255    1.027859    0.690259
