17

O       0.214788    1.411813   -0.207954
C       0.083001    0.025962   -0.071966
C       0.049059   -0.627167    1.321267
C      -1.472617   -0.293353    1.536630
C      -1.818452   -1.753082    1.881127
C      -0.747924   -1.863251    0.779252
C      -1.328525   -0.623172   -0.011035
C      -2.371511   -0.631950   -0.988589
C      -3.241807   -0.626269   -1.820326
H      -0.387985    1.841898    0.408655
H       0.769241   -0.419928   -0.798175
H       0.814293   -0.651310    2.096854
H      -1.895044    0.621754    1.955545
H      -1.530968   -2.100556    2.877954
H      -2.825324   -2.093857    1.624502
H      -0.317786   -2.749043    0.311122
H      -4.007440   -0.622537   -2.555979
