18

C      -0.479135    1.333389   -0.055279
N       0.003050   -0.032602    0.097719
C       1.345579   -0.460089   -0.253971
C       2.453811    0.573844   -0.422781
C       2.433786    1.356916    0.884144
O       2.838081    2.475077    1.087563
C       1.704253    0.534930    1.957623
O       0.990507    1.361832    2.842223
C       0.866716   -0.462522    1.179995
H       0.252036    2.129766    0.134285
H      -0.853469    1.453533   -1.076916
H      -1.312794    1.481222    0.635835
H       1.408098   -1.371718   -0.841738
H       3.424741    0.074755   -0.536146
H       2.336799    1.246750   -1.277221
H       2.481392   -0.041721    2.497514
H       1.464440    2.206827    2.849238
H       0.561276   -1.371059    1.691337
