17

C      -0.028839   -1.239381   -0.231712
C      -0.004177   -0.047845   -0.080257
C       0.009926    1.407450    0.082197
O      -0.628066    1.825463    1.296132
C       0.243304    1.931154    2.424148
C       1.614631    2.424997    1.981546
C       1.481982    3.339298    0.744469
C       1.442524    1.970802    0.034783
O       2.182397    1.379858    1.134446
H      -0.046873   -2.293579   -0.359195
H      -0.584762    1.865557   -0.719000
H      -0.242270    2.633086    3.110641
H       0.358713    0.960485    2.926384
H       2.269627    2.699159    2.812196
H       0.612890    3.993953    0.669226
H       2.405561    3.877996    0.532238
H       1.922068    1.820513   -0.934854
