19

C      -0.577777    1.241737    0.134903
C      -0.121741   -0.220519    0.089844
C       0.653240   -0.608300   -1.180734
N       2.118400   -0.335492   -1.290401
C       2.775364    0.683506   -0.503685
C       2.499839   -1.743877   -1.074584
C       1.016780   -2.103201   -1.220854
O       0.388437   -3.116187   -1.295250
H       0.266746    1.936334    0.148757
H      -1.193741    1.484676   -0.737633
H      -1.177369    1.432716    1.030338
H       0.472169   -0.461811    0.979949
H      -1.001062   -0.875350    0.125348
H       0.099061   -0.254781   -2.061546
H       2.655136    0.565851    0.588958
H       3.848746    0.661471   -0.719829
H       2.405759    1.674693   -0.783804
H       3.198641   -2.162490   -1.807907
H       2.870772   -1.980001   -0.061386
