14

N      -0.016032   -1.081868    0.032869
C      -0.048043    0.073429    0.025728
C      -0.062136    1.513931   -0.027749
O      -0.973301    2.173789    0.872471
C      -0.842372    3.314204   -0.011182
C       0.654467    3.729199   -0.033980
C       0.925644    3.033549   -1.350204
C       1.268728    2.331774   -0.059801
C      -0.498831    2.415864   -1.241965
H      -1.644073    4.042899    0.078571
H       1.145868    4.577369    0.420892
H       1.541708    3.308270   -2.192299
H       2.226017    2.081400    0.373209
H      -1.186987    2.106584   -2.022806
