22

C      -0.112335    1.533714   -0.041413
C       0.025390    0.002282   -0.026052
C       0.729819   -0.451541   -1.315976
C       0.738298   -0.503623    1.254666
C       0.088630    0.026324    2.541549
C       0.790537   -2.055377    1.294272
C       1.557119   -2.589883    2.413826
C       2.203670   -3.018377    3.332790
H       0.869724    2.016390    0.036083
H      -0.568898    1.866658   -0.979098
H      -0.733876    1.904971    0.776464
H      -0.989695   -0.424014   -0.025721
H       1.770772   -0.106612   -1.334553
H       0.735354   -1.537410   -1.440429
H       0.228772   -0.030388   -2.193489
H       1.777133   -0.145643    1.222175
H       0.554019   -0.428280    3.419857
H       0.190779    1.109706    2.634568
H      -0.981613   -0.214361    2.567226
H      -0.236555   -2.444812    1.337059
H       1.224532   -2.442390    0.367033
H       2.769956   -3.406325    4.142646
