13

C       0.207070    1.539370    0.111803
N       1.254452    0.541791   -0.094200
C      -0.143789    0.088969    0.055876
C      -0.471537   -0.679842    1.264526
N      -1.303467   -1.678510    1.356693
C      -1.229115   -1.976332    2.694295
N      -0.419315   -1.228502    3.390965
O       0.095750   -0.347644    2.429294
H       0.237276    2.035017    1.077062
H      -0.116734    2.159471   -0.719767
H       1.517589    0.492908   -1.075047
H      -0.677076   -0.273464   -0.816423
H      -1.792339   -2.772668    3.158848
