20

C      -0.243189    1.177287   -1.327373
C       0.313679   -0.121908   -0.785859
O       1.689912   -0.340004   -1.152394
C       2.121517   -0.513320    0.225155
C       2.576077   -1.946140    0.472243
C       3.188452    0.505003    0.591482
C       0.660449   -0.229782    0.733084
C       0.445238    0.946938    1.553377
N       0.276524    1.888625    2.203381
H       0.334165    2.036046   -0.975788
H      -0.207705    1.158490   -2.420755
H      -1.285230    1.308545   -1.018068
H      -0.310781   -0.964961   -1.109944
H       3.470550   -2.159427   -0.120719
H       2.817364   -2.102564    1.528855
H       1.798607   -2.658715    0.181960
H       2.843401    1.525015    0.409986
H       3.467470    0.417758    1.646261
H       4.080175    0.329139   -0.018061
H       0.204038   -1.090946    1.225478
