23

O      -0.107374    1.359784   -0.348459
C      -0.007480    0.004392    0.064313
C      -1.374248   -0.644043   -0.105954
C      -1.395504   -2.117781    0.318511
C      -2.771039   -2.738636    0.172229
C      -3.354489   -3.285770   -1.105414
C      -2.304528   -4.031567   -1.941463
C      -2.024056   -4.973411   -0.725970
C      -3.075768   -4.210457    0.091263
H       0.755504    1.770361   -0.242208
H       0.740195   -0.540343   -0.536228
H       0.309990   -0.068103    1.118040
H      -2.104286   -0.072039    0.480258
H      -1.678716   -0.551932   -1.155217
H      -0.656688   -2.675304   -0.268043
H      -1.075161   -2.203021    1.366331
H      -3.527440   -2.212016    0.754039
H      -4.307521   -2.936189   -1.485455
H      -2.745110   -4.571334   -2.782402
H      -1.466276   -3.436938   -2.319830
H      -2.322766   -6.003475   -0.932590
H      -1.005307   -4.987954   -0.324654
H      -3.782857   -4.674740    0.769388
