13

O       0.102481   -0.082321   -0.002431
C       0.015792    1.129420    0.009471
C       1.187988    1.992778    0.003370
C       1.400416    3.372014    0.013101
C       0.363538    4.417427    0.034531
O       0.580784    5.603538    0.042646
N       2.743414    3.643843   -0.000237
C       3.335790    2.469041   -0.017638
N       2.445165    1.444758   -0.016228
H      -0.962867    1.644490    0.025385
H      -0.676385    4.021919    0.043381
H       4.403554    2.306053   -0.031620
H       2.616198    0.449843   -0.027040
