17

C       0.008313    1.569397    0.044059
C       0.168943    0.080564    0.021598
O      -0.769481   -0.703494    0.805504
C       0.621972   -0.805458    1.110909
C       1.290692   -2.011954    0.489096
C       0.443014   -2.948884   -0.288257
N       1.194878   -1.873444   -0.981644
C       0.491405   -0.652876   -1.260220
N       0.227193   -0.190118   -2.407479
H       0.944905    2.061174   -0.234741
H      -0.753008    1.870477   -0.680753
H      -0.291299    1.903811    1.039967
H       0.927615   -0.445384    2.088765
H       2.255159   -2.319290    0.881661
H       0.805988   -3.948502   -0.506954
H      -0.631323   -2.836705   -0.199480
H       0.547283   -0.838577   -3.131100
