19

O       0.098836    1.434756    0.221605
C       0.032901    0.014787    0.217359
C      -1.385571   -0.464267   -0.016919
C      -2.545990    0.469876    0.035408
N      -2.154598   -0.160638   -1.223779
C      -1.573227    0.661941   -2.252022
C      -1.192274   -0.034646   -3.532489
C      -2.403399    0.866824   -3.489860
H       1.025988    1.690270    0.223770
H       0.690175   -0.406075   -0.560142
H       0.369615   -0.393333    1.183812
H      -1.527735   -1.487308    0.330590
H      -3.496072    0.147733    0.454490
H      -2.310640    1.522026    0.170518
H      -0.944974    1.488894   -1.927431
H      -0.307757    0.304033   -4.060882
H      -1.371468   -1.102665   -3.576930
H      -3.377051    0.391182   -3.505184
H      -2.354584    1.829123   -3.987266
