21

C      -0.075966    1.570657    0.017126
C      -0.004722    0.039183    0.002366
C       0.691963   -0.464488   -1.287388
C      -0.024353   -0.116681   -2.507954
C      -0.633123    0.171566   -3.504112
C       0.718706   -0.527023    1.258844
C       0.094479   -0.042584    2.585060
C       0.751842   -1.990652    1.240619
C       0.753212   -3.193462    1.247078
H       0.923579    2.009955    0.125675
H      -0.500751    1.935026   -0.921815
H      -0.699408    1.944858    0.832396
H      -1.025810   -0.361985    0.002103
H       1.708987   -0.049457   -1.330423
H       0.805575   -1.552662   -1.232131
H      -1.160737    0.419151   -4.391481
H       1.758325   -0.166797    1.226344
H      -0.967206   -0.304685    2.630387
H       0.594217   -0.517082    3.433098
H       0.190951    1.039852    2.694114
H       0.765164   -4.255326    1.249828
