22

C       0.636689    0.053228   -1.495830
C      -0.005565    0.308401   -0.131943
O      -0.083365    1.704877    0.158731
C      -1.385592   -0.338314   -0.017992
C      -1.511776   -1.861344   -0.049966
C      -0.949417   -2.489949    1.161544
N      -2.301874   -1.912609    1.247373
C      -2.141839   -0.407079    1.351566
C      -1.528720    0.138987    2.629275
H       1.608628    0.550066   -1.557593
H       0.780951   -1.018057   -1.669632
H       0.001634    0.440685   -2.302796
H       0.654652   -0.087149    0.647215
H      -0.633309    2.112649   -0.519893
H      -2.032891    0.118275   -0.777139
H      -1.813678   -2.444763   -0.914199
H      -0.960742   -3.574717    1.208629
H      -0.122574   -2.032079    1.696339
H      -3.145311    0.012482    1.240181
H      -0.533448   -0.265064    2.834552
H      -1.428335    1.225263    2.556396
H      -2.170177   -0.102078    3.483146
