19

C      -0.012444    1.450976    0.025574
C       0.041862   -0.057680   -0.011588
C      -0.116406   -0.767410   -1.354935
C       0.044779   -2.239022   -0.988473
O      -1.162721   -2.680091   -0.301644
C      -0.552591   -2.315521    0.949574
C      -0.457758   -0.797115    1.225832
C       1.030897   -0.800481    0.843011
C       0.866106   -2.257712    0.355324
H       0.731153    1.885967   -0.652317
H      -0.998059    1.818839   -0.280858
H       0.187840    1.834133    1.031449
H      -1.087917   -0.597182   -1.829328
H       0.669862   -0.433447   -2.045187
H       0.309917   -2.910998   -1.807284
H      -0.856583   -2.945758    1.787474
H      -0.959377   -0.257619    2.020990
H       1.882236   -0.361738    1.346742
H       1.622477   -3.019623    0.522243
