18

C       0.044012    1.507232   -0.033526
C       0.038904   -0.002152   -0.002955
C       0.103377   -0.722782   -1.196068
O       0.168156   -0.118085   -2.429982
C       0.100387   -2.128354   -1.211474
N       0.226369   -2.796842   -2.431282
C       0.023882   -2.802759    0.008587
C      -0.042395   -2.097646    1.206709
C      -0.033279   -0.708111    1.202560
H       0.954081    1.909076   -0.499408
H      -0.814148    1.915147   -0.585981
H      -0.006082    1.915205    0.978429
H       0.116695    0.835327   -2.319334
H      -0.049807   -2.237445   -3.225554
H      -0.195457   -3.713874   -2.448335
H       0.021157   -3.888832    0.008936
H      -0.101029   -2.638558    2.145004
H      -0.083323   -0.156334    2.135571
