17

C      -0.081962    1.579900    0.006029
C       0.026455    0.064909    0.020823
C       1.241673   -0.645971   -0.694045
C       2.051030   -0.156788    0.533048
O       3.085159    0.365255    0.800023
C       0.756284   -0.662030    1.217504
C       0.895442   -1.836183    0.225508
C       0.191327   -3.094270    0.036148
O       1.597654   -3.031496    0.393774
H       0.868598    2.063040    0.251374
H      -0.394619    1.932976   -0.982025
H      -0.829395    1.918586    0.730809
H      -0.924079   -0.416521   -0.224587
H       1.495879   -0.649439   -1.750821
H       0.475573   -0.683195    2.267344
H      -0.461810   -3.480960    0.816307
H      -0.008967   -3.465980   -0.967086
