23

C       0.106192    1.677462   -0.016985
C       0.022036    0.144752   -0.004924
C       0.657734   -0.448614   -1.286155
C       0.779090   -1.982308   -1.351532
C      -0.480220   -2.810430   -1.011691
O      -0.522036   -3.342654    0.302951
C      -0.882079   -2.444201    1.346558
C       0.252886   -1.567007    1.830129
C       0.640500   -0.435653    1.240913
H       1.149843    2.012256    0.010318
H      -0.351486    2.090584   -0.921822
H      -0.405767    2.109817    0.848373
H      -1.040349   -0.128668   -0.018023
H       0.065388   -0.094642   -2.140712
H       1.660740   -0.020514   -1.418741
H       1.089648   -2.238793   -2.371833
H       1.578726   -2.333194   -0.692158
H      -1.397772   -2.234835   -1.220791
H      -0.506291   -3.695503   -1.655460
H      -1.740514   -1.831995    1.029894
H      -1.225046   -3.084306    2.165145
H       0.801035   -1.926379    2.697698
H       1.498981    0.101476    1.644349
