18

O       0.282798    0.376925   -1.049300
C      -0.220971    0.302325    0.272726
C      -1.570617   -0.353889    0.312121
C      -1.992866   -1.330602    1.332164
N      -1.690594   -1.841588   -0.022054
C      -2.921063   -1.507918   -0.854030
C      -2.731584    0.022260   -0.606290
C      -2.787435   -1.941494   -2.229821
C      -2.674541   -2.279085   -3.377939
H       0.265259   -0.522451   -1.399133
H       0.465855   -0.242304    0.939408
H      -0.285606    1.334889    0.635501
H      -1.261070   -1.645842    2.069716
H      -3.023202   -1.343638    1.683477
H      -3.830016   -1.934443   -0.414136
H      -3.567087    0.566355   -0.158552
H      -2.392445    0.536562   -1.504879
H      -2.579072   -2.586996   -4.389820
