18

O      -0.080426   -0.082711   -0.019997
C       0.035592    1.111917   -0.138828
C       1.334135    1.845181   -0.094282
C       1.750800    2.691230    1.186911
C       3.138480    2.579720    0.487446
C       2.701788    1.144755    0.083096
N       2.902293    3.496178   -0.677860
C       2.816977    2.853174   -2.002732
C       1.605274    2.936632   -1.150170
H      -0.860269    1.762873   -0.273772
H       1.330190    3.693768    1.285984
H       1.669062    2.124993    2.116379
H       4.074067    2.790156    1.003200
H       2.687864    0.471962    0.940433
H       3.162266    0.634038   -0.761197
H       2.910428    3.564095   -2.819159
H       3.303166    1.903867   -2.192307
H       0.807800    3.639117   -1.379836
