16

C      -0.034581    1.504903    0.083345
C       1.377579    2.098052   -0.045778
N       2.111919    1.379247   -1.074990
N       3.130123    1.902134   -1.778246
N       3.637683    0.936024   -2.498512
C       2.957459   -0.213731   -2.243772
C       1.964777    0.049778   -1.319853
C       0.908819   -0.677613   -0.646575
C      -0.029660   -0.006354    0.034575
H      -0.481794    1.863331    1.015468
H      -0.672031    1.885069   -0.728344
H       1.357147    3.154904   -0.316256
H       1.919228    1.999032    0.903260
H       3.202519   -1.139486   -2.739019
H       0.896673   -1.758476   -0.726640
H      -0.842350   -0.534686    0.521858
