20

C       0.352371    1.642783   -0.528474
O      -0.327629    0.409349   -0.482580
C       0.443627   -0.664629   -0.947435
C       1.571909   -1.231975   -0.027558
C       1.029239   -2.631327   -0.349947
C       1.807732   -3.732902   -1.009829
C       1.244319   -3.917818    0.383375
C      -0.278776   -2.027986   -0.880260
H       1.248338    1.644358    0.110656
H       0.662502    1.898314   -1.554383
H      -0.337223    2.409694   -0.167379
H       0.828955   -0.452594   -1.956875
H       2.610185   -1.015122   -0.292649
H       1.394131   -0.946372    1.014924
H       1.339334   -4.275140   -1.825565
H       2.881866   -3.613039   -1.113761
H       1.938234   -3.922114    1.218255
H       0.396939   -4.585057    0.507316
H      -1.063972   -1.996409   -0.118190
H      -0.692799   -2.426854   -1.809722
