20

C      -0.000107    1.519430    0.032155
C       0.010469    0.021277   -0.030011
C       0.011541   -0.705482   -1.149576
C       0.016980   -2.220276   -1.028889
O      -0.051853   -2.905709   -2.248392
C      -1.017455   -2.598570    0.050989
N       0.012044   -2.227487    1.092171
C       1.058626   -2.588767    0.066980
C       0.007703   -0.762959    1.276993
H       0.876319    1.901382    0.571741
H      -0.004186    1.964334   -0.966726
H      -0.881208    1.888606    0.572864
H      -0.011425   -0.261714   -2.142331
H       0.586363   -2.515656   -2.855655
H      -1.955227   -2.038914    0.086562
H      -1.211185   -3.674276    0.097163
H       1.264732   -3.662315    0.115475
H       1.988293   -2.015630    0.119027
H       0.880728   -0.490574    1.886157
H      -0.873293   -0.493526    1.875939
