14

C      -0.005004    1.486946    0.079394
C       0.014310    0.003541   -0.017747
C      -0.029427   -0.782453   -1.107772
C      -0.106549   -0.373233   -2.463001
N      -0.169425   -0.020189   -3.563355
C       0.015774   -2.216023   -0.690256
O      -0.002466   -3.206675   -1.354148
O       0.087134   -2.227468    0.679912
C       0.091464   -0.897957    1.183008
H       0.896405    1.852046    0.585952
H      -0.063920    1.950155   -0.907124
H      -0.860516    1.823162    0.677308
H       1.007521   -0.730639    1.764192
H      -0.764443   -0.759694    1.856238
