25

C       0.021589    1.403537    0.009334
O       0.022849   -0.001979    0.001757
C      -1.276494   -0.553311    0.011305
C      -1.164833   -2.071554    0.001998
C      -2.528688   -2.768528    0.011384
C      -2.423087   -4.297652    0.002088
C      -3.786180   -4.995156    0.011467
C      -3.678031   -6.513864    0.002202
O      -4.993587   -7.049036    0.012110
H       1.063424    1.733774    0.001064
H      -0.488958    1.819035   -0.874803
H      -0.471767    1.809443    0.907576
H      -1.830141   -0.213577    0.904897
H      -1.847243   -0.203967   -0.867701
H      -0.592953   -2.373410   -0.884047
H      -0.575987   -2.382938    0.873514
H      -3.098164   -2.451474    0.895952
H      -3.115091   -2.441976   -0.858547
H      -1.853332   -4.614384   -0.882527
H      -1.836399   -4.623884    0.872060
H      -4.358861   -4.693863    0.897414
H      -4.375831   -4.684339   -0.859936
H      -3.121496   -6.841331   -0.891740
H      -3.104246   -6.850918    0.881559
H      -4.927559   -8.008223    0.005900
