14

C       0.001251    1.740216    0.837962
C      -0.131608    0.427489    0.051205
C       0.620702   -0.668708    0.656290
C       1.225719   -1.561980    1.185548
C      -1.612857    0.016885   -0.106303
O      -2.514628    0.643465    0.398065
C      -1.854582   -1.154888   -0.926622
C      -2.057541   -2.106240   -1.635025
H       1.052149    2.030648    0.901525
H      -0.562692    2.534996    0.344913
H      -0.393308    1.621347    1.848771
H       0.244975    0.573418   -0.972566
H       1.765635   -2.353593    1.643418
H      -2.245428   -2.950447   -2.253254
