15

C      -0.019197    1.556151    0.015095
C       0.001080    0.051494   -0.008643
C      -0.040758   -0.658433   -1.169798
N      -0.020983   -2.021968   -1.169067
C       0.042245   -2.842781   -0.027688
O       0.054374   -4.058087   -0.141649
C       0.085985   -2.073323    1.202739
C       0.066199   -0.713202    1.200118
H       0.880306    1.963787    0.491278
H      -0.074208    1.968476   -0.996236
H      -0.879560    1.938572    0.576775
H      -0.091375   -0.187113   -2.144931
H      -0.052891   -2.530140   -2.041957
H       0.135185   -2.646567    2.120427
H       0.100700   -0.177945    2.146013
