16

C       0.186580    1.304704   -0.546489
N       0.553670    0.004874   -1.077786
C       0.340154   -1.003783   -0.347855
O       0.615811   -2.280381   -0.672515
C       1.173586   -2.648219   -1.865047
C       1.489529   -3.911761   -2.287088
N       2.032343   -3.845117   -3.549606
C       2.039618   -2.571488   -3.870639
N       1.524872   -1.790443   -2.875818
H      -0.249260    1.259164    0.462447
H       1.070816    1.950180   -0.512316
H      -0.537624    1.782947   -1.214673
H      -0.098797   -0.981779    0.653758
H       1.356701   -4.842595   -1.759874
H       2.399537   -2.152427   -4.797829
H       1.390208   -0.790843   -2.803884
