14

O       0.030746   -0.063987    0.116551
C      -0.030869    1.132025    0.069304
C      -1.158751    2.192504    0.078006
C      -0.005121    3.251925   -0.037490
N       0.929973    2.115083   -0.009748
C       0.024451    4.065883   -1.239037
C       0.060196    4.761461   -2.229098
C       0.097397    5.536480   -3.346196
C       0.132128    6.225185   -4.337246
H      -1.822364    2.147678   -0.785419
H      -1.738992    2.241027    1.000170
H       0.081775    3.891764    0.848383
H       1.928751    2.075633   -0.153131
H       0.161253    6.829921   -5.209770
