13

C       0.028836   -1.216732   -0.004088
C       0.002743   -0.013181    0.002984
C      -0.017723    1.397155    0.011033
C      -1.123776    2.230230    0.029575
N      -0.648987    3.494776    0.030590
N       0.690776    3.571971    0.014135
C       1.097403    2.298752    0.001939
C       2.470089    1.954296   -0.017278
C       3.628661    1.631636   -0.033620
H       0.057083   -2.277913   -0.010447
H      -2.177793    2.005847    0.041618
H      -1.180190    4.349494    0.042029
H       4.652723    1.351529   -0.047838
