16

O       0.311918    1.325200    0.403690
C       0.138707    0.007358   -0.064156
C      -1.351725   -0.504307   -0.117390
C      -1.389800   -0.263157   -1.675953
C       0.121791   -0.220928   -1.567582
C       0.625168   -1.192321   -2.348759
N      -0.388294   -1.746515   -3.136863
C      -1.665625   -1.328657   -2.738789
O      -2.703015   -1.690194   -3.238918
H      -0.067817    1.929190   -0.243357
H       0.829100   -0.607305    0.517834
H      -1.436905   -1.560200    0.145309
H      -2.061302    0.087317    0.465519
H      -1.931099    0.648864   -1.938763
H       1.602489   -1.657203   -2.328500
H      -0.257936   -2.417718   -3.876880
