22

C      -0.205700    1.774940   -0.146475
C      -0.238823    0.243912   -0.067039
C       0.710902   -0.495050   -1.027820
C       0.363829   -0.211319   -2.500347
C       2.206287   -0.136001   -0.765853
N       2.905155   -1.364310   -1.092013
C       2.130769   -2.493970   -1.060366
O       2.522645   -3.630643   -1.206814
C       0.699506   -2.023876   -0.787843
H       0.799395    2.168976    0.039503
H      -0.532325    2.143683   -1.123248
H      -0.870563    2.210535    0.605488
H       0.002773   -0.063196    0.958806
H      -1.262419   -0.105724   -0.253705
H       0.454547    0.851702   -2.742181
H       1.032614   -0.761968   -3.169515
H      -0.662562   -0.522288   -2.722219
H       2.546756    0.692874   -1.395155
H       2.364692    0.155151    0.283545
H       3.909105   -1.440233   -1.134844
H       0.461437   -2.269594    0.254268
H      -0.008173   -2.565374   -1.419471
