22

C       0.274478    1.507637    0.007063
N      -0.023969    0.046088    0.002277
H       0.396448   -0.394110   -0.818903
H       0.412229   -0.402658    0.810499
C      -1.534878   -0.442678    0.014339
C      -2.180246    0.082726    1.290762
C      -2.204777    0.095931   -1.243808
C      -1.437334   -1.963110    0.005475
C      -2.856655   -2.751859    0.015402
O      -3.872262   -2.023251    0.029334
O      -2.703002   -3.970170    0.007449
H       1.355839    1.656089   -0.002739
H      -0.170757    1.959854   -0.877462
H      -0.153305    1.950461    0.904854
H      -2.299218    1.170719    1.296308
H      -3.166710   -0.391155    1.313775
H      -1.625816   -0.226597    2.184971
H      -1.667713   -0.203924   -2.151737
H      -3.191485   -0.377942   -1.252705
H      -2.323846    1.183898   -1.235688
H      -0.900265   -2.308879   -0.887976
H      -0.882746   -2.318133    0.884470
