21

C      -0.280731    1.317814    0.088481
O       0.364416    0.087847   -0.150515
C       0.869397   -0.507579    1.015666
C      -0.084844   -1.342221    1.899624
C      -0.083259   -2.532666    0.878476
C       0.291659   -3.555684    1.964847
C       1.093765   -2.290600    2.345763
C       2.027983   -2.099220    3.511093
C       1.368231   -1.941496    0.832165
H       0.396740    2.047305    0.560501
H      -0.602303    1.712023   -0.878630
H      -1.163755    1.202589    0.735040
H       1.536613    0.190895    1.546099
H      -0.921823   -1.028808    2.526513
H      -0.751421   -2.644263    0.026776
H      -0.502891   -3.859176    2.655864
H       0.873146   -4.427902    1.645297
H       2.855174   -2.816841    3.470330
H       2.459806   -1.092912    3.525725
H       1.503392   -2.251684    4.461096
H       2.198282   -2.306109    0.224891
