17

C       0.290818    1.345476    0.365787
C       0.009193   -0.121858    0.142741
C       0.692541   -0.865912   -0.989176
N       1.013581   -1.150904    0.389796
C       2.246698   -0.866903    1.008904
N       3.317132   -1.438239    0.358234
O       2.341914   -0.214289    2.024166
C      -1.377142   -0.594256    0.477470
O      -2.305054    0.137229    0.703403
H       1.255019    1.635033   -0.057079
H      -0.500182    1.936678   -0.101645
H       0.308688    1.571682    1.433594
H       0.172982   -1.651525   -1.533642
H       1.398347   -0.282308   -1.575823
H       3.146173   -2.212937   -0.262875
H       4.161907   -1.488225    0.906070
H      -1.475203   -1.702782    0.489673
