21

C      -0.198442    1.272185    0.052600
O       0.292438   -0.033170   -0.152088
C       0.813710   -0.618366    1.013924
C      -0.187638   -1.157657    2.099410
C       0.415800   -2.556114    1.904530
C       0.700758   -3.533082    3.004131
O      -0.483222   -4.095033    3.558066
C       0.230809   -2.969931    0.467443
C       1.352476   -2.026222    0.808132
H       0.590058    1.950981    0.415028
H      -0.563065    1.638296   -0.910143
H      -1.027543    1.294066    0.775987
H       1.561946    0.047497    1.469117
H      -0.007008   -0.738031    3.091974
H      -1.250281   -1.059589    1.857877
H       1.383388   -4.316328    2.634348
H       1.201925   -3.034826    3.842081
H      -0.984479   -4.474896    2.828573
H       0.551308   -3.978902    0.224145
H      -0.618211   -2.614612   -0.109182
H       2.388028   -2.276904    0.611587
