20

C       0.048899    1.396920    0.063898
O      -0.129477    0.005809   -0.059797
C       0.587240   -0.568618   -1.145077
C       2.093304   -0.849444   -0.840127
N       2.204261   -2.287872   -0.532882
C       1.295627   -2.622146    0.633741
C       0.203337   -3.030315   -0.341090
C       0.069120   -1.967730   -1.431409
C       1.217061   -2.935079   -1.452318
H       1.092443    1.672558    0.280861
H      -0.259828    1.927911   -0.850957
H      -0.577976    1.732184    0.894057
H       0.472265    0.080497   -2.027796
H       2.704258   -0.638830   -1.725138
H       2.471708   -0.246645   -0.009456
H       1.707807   -3.467711    1.192288
H       1.089960   -1.789250    1.311446
H      -0.574066   -3.768431   -0.185069
H      -0.758382   -2.106318   -2.117223
H       1.510824   -3.598903   -2.255422
