15

O       0.033645    1.439526    0.168794
C       0.015347    0.050511    0.016702
C       0.794577   -0.359673   -1.221619
O       1.337196    0.460132   -1.918805
C       0.596818   -0.645563    1.253113
O       1.954172   -0.244934    1.524200
C       1.623567    0.430911    2.758591
C       0.169756   -0.026329    2.602900
O      -0.834396    0.030403    3.236969
H       0.604876    1.772770   -0.542161
H      -1.018277   -0.321229   -0.104259
H       0.835747   -1.444548   -1.444268
H       0.482701   -1.736579    1.183322
H       2.161263    0.027515    3.624585
H       1.764662    1.515993    2.696244
