20

O      -0.766183    0.867891    0.681460
C       0.030645    1.030007   -0.205744
C       1.282851    1.870198   -0.107522
C       1.310060    2.977312   -1.178843
C       2.601700    3.765090   -1.177121
C       4.056982    3.279561   -1.406324
N       4.259027    4.788980   -1.189579
C       3.021375    4.942245   -2.089678
C       3.237467    4.621728   -0.051899
H      -0.120171    0.554164   -1.204370
H       1.347803    2.284570    0.902454
H       2.143575    1.203108   -0.261052
H       1.163497    2.532669   -2.172531
H       0.468687    3.663268   -1.017790
H       4.528340    2.664572   -0.634399
H       4.336336    2.942490   -2.409029
H       3.220383    4.731779   -3.144676
H       2.507420    5.899843   -1.965252
H       2.740378    5.555031    0.228194
H       3.644441    4.109873    0.824733
