16

C       0.072912    1.589047    0.022517
C       0.010588    0.050982    0.051808
C       0.737825   -0.492519    1.195543
C       1.337393   -0.938466    2.136752
C      -1.462497   -0.475835    0.052122
O      -2.203721   -0.003177    1.166090
C      -2.128671   -0.167432   -1.216825
C      -2.677183    0.121982   -2.246982
H       1.110224    1.927004   -0.027625
H      -0.462736    1.975293   -0.849419
H      -0.369833    2.006850    0.930871
H       0.471245   -0.334110   -0.867552
H       1.866482   -1.334425    2.967854
H      -1.419955   -1.563129    0.177785
H      -2.496860    0.892481    0.967693
H      -3.170240    0.357428   -3.158063
