16

C       1.438442   -0.482960    0.146618
C       0.040763    0.026436    0.061578
N      -0.179260    1.364691    0.079538
H      -1.115075    1.732364    0.147406
H       0.559836    1.972203    0.387135
N      -0.956911   -0.807095   -0.072367
C      -0.993554   -2.202825   -0.173779
C      -0.058087   -3.237574   -0.193944
N      -0.764658   -4.371715   -0.312659
N      -2.068743   -4.040473   -0.362905
N      -2.231234   -2.731358   -0.280463
H       2.151532    0.330819    0.284264
H       1.524789   -1.192688    0.975942
H       1.689778   -1.030665   -0.768079
H      -1.906259   -0.443246   -0.122884
H       1.018114   -3.241765   -0.136812
