17

C      -0.075693    1.542232   -0.092033
N       0.049521    0.131247    0.250394
C       0.756884   -0.064450    1.512465
C      -1.222440   -0.588101    0.187233
C      -0.928590   -2.095297    0.074602
O      -1.569428   -2.972801    0.579560
C      -2.191990   -0.264738    1.238173
C      -2.949380    0.043705    2.118837
H       0.921934    1.989523   -0.136452
H      -0.537434    1.644021   -1.079204
H      -0.678225    2.115413    0.632912
H       0.241671    0.389668    2.374719
H       0.875049   -1.133747    1.715252
H       1.755046    0.375739    1.432736
H      -1.670192   -0.339661   -0.789456
H      -0.041322   -2.286623   -0.568199
H      -3.631596    0.297926    2.892318
