13

O      -0.274753   -0.122959    0.074205
C      -0.142854    1.075765    0.158761
N      -1.076097    2.090716   -0.067817
N      -0.626549    3.402264    0.112479
C       0.600084    3.183132    0.453793
C       1.970640    3.682284    0.866429
C       2.350213    2.144105    0.914797
N       0.957194    1.873624    0.503672
H      -2.027843    1.928801   -0.346423
H       2.507027    4.263347    0.114552
H       2.015921    4.196389    1.827818
H       3.093157    1.820829    0.183268
H       2.598525    1.753191    1.903312
