19

C      -0.077342    1.628843   -0.127105
C      -0.060692    0.105027   -0.269443
C      -1.356078   -0.546860    0.239082
C      -1.371220   -2.055379    0.101551
C      -2.635787   -2.763821   -0.288632
N      -1.522009   -2.699859   -1.227962
C      -0.457523   -2.829734    0.996225
O       0.134863   -2.362708    1.937107
H       0.853680    2.071445   -0.493805
H      -0.903476    2.074417   -0.693185
H      -0.196759    1.925462    0.920613
H       0.096452   -0.164925   -1.322022
H       0.785737   -0.309189    0.287754
H      -1.492592   -0.296887    1.297601
H      -2.216822   -0.129166   -0.299580
H      -2.853250   -3.755375    0.100079
H      -3.508355   -2.134779   -0.444310
H      -1.687062   -1.977368   -1.925134
H      -0.376177   -3.904534    0.720299
