18

N      -0.129856    1.313023    0.297543
C      -0.001597    0.107583   -0.075465
O       1.166841   -0.352787   -0.605948
C       1.356187   -1.761463   -0.829708
C       0.110359   -2.501019   -1.287801
C      -0.934743   -3.011555   -0.320982
C      -0.962941   -2.125295    0.923903
C      -1.142017   -0.864162   -0.004625
C      -1.221942   -1.812882   -1.215602
H       0.753567    1.812606    0.169108
H       2.130870   -1.812404   -1.598592
H       1.770424   -2.204679    0.085214
H       0.250255   -3.129851   -2.160940
H      -1.317107   -4.022311   -0.392242
H      -1.855436   -2.277647    1.532976
H      -0.087019   -2.149195    1.580361
H      -2.049860   -0.307602    0.214772
H      -1.883291   -1.705734   -2.065556
