19

C       0.406088    1.316511    0.025122
C      -0.039432   -0.163367   -0.000439
C       0.549892   -0.961848   -1.213968
C       1.619014   -1.867757   -0.625390
C       2.688467   -1.265382    0.210816
N       1.526421   -1.904648    0.844560
C       0.459821   -0.986195    1.251940
C      -1.505356   -0.182518   -0.049586
N      -2.661273   -0.193132   -0.080991
H       1.494553    1.400118    0.036991
H       0.033803    1.846453   -0.856096
H       0.015164    1.820685    0.913241
H      -0.227218   -1.570027   -1.683062
H       0.937254   -0.282418   -1.978786
H       1.798014   -2.816616   -1.123137
H       3.624011   -1.797982    0.355652
H       2.783123   -0.184154    0.243121
H       0.804260   -0.320217    2.048906
H      -0.360834   -1.587595    1.651316
