21

C       0.005378    1.499414   -0.005549
C       1.292575    0.713526    0.028524
O       2.002730    0.690058    1.233592
C       2.047198   -0.611639    1.813153
C       0.653878   -1.043782    2.277591
C      -0.358393   -0.984566    1.127100
C      -0.364328   -2.109923    0.043813
C      -0.453986   -1.019110   -1.064298
C      -0.025519   -0.001498   -0.007237
H      -0.272334    2.018224    0.906458
H      -0.248421    2.020311   -0.923881
H       1.925493    0.707967   -0.860117
H       2.468478   -1.333999    1.096071
H       2.736558   -0.541134    2.659103
H       0.692755   -2.054483    2.702602
H       0.343893   -0.367840    3.083201
H      -1.371239   -0.830249    1.514659
H       0.586283   -2.650072    0.009037
H      -1.176555   -2.838115    0.096967
H       0.188360   -1.135238   -1.942116
H      -1.482937   -0.860018   -1.403500
