18

C       0.053009    1.618340    0.023120
C       0.037023    0.114031   -0.266045
C      -1.316612   -0.556948   -0.048839
C      -2.443355   -0.020420   -0.914752
C      -1.264475   -2.095811    0.100894
C      -1.653611   -1.815338    1.550299
O      -1.868386   -2.436753    2.541373
O      -1.699468   -0.457577    1.388558
H       1.071915    2.009239   -0.047815
H      -0.563675    2.179368   -0.685043
H      -0.318032    1.818991    1.032249
H       0.349965   -0.079953   -1.300106
H       0.768020   -0.386187    0.380143
H      -2.201404   -0.150589   -1.974743
H      -3.376034   -0.551480   -0.705483
H      -2.610839    1.043231   -0.728836
H      -2.010152   -2.661230   -0.460947
H      -0.283893   -2.560092   -0.020172
