14

O       0.173520   -0.208615   -0.177280
C       0.074673    0.990273   -0.175667
C       1.239751    1.954657   -0.007323
C       1.299418    2.932292   -1.145997
C       1.665593    2.681672   -2.457347
N       1.536624    3.853410   -3.121943
N       1.106873    4.863439   -2.344050
C       0.959302    4.305642   -1.146594
H      -0.908719    1.492625   -0.321487
H       1.085370    2.501982    0.931755
H       2.156470    1.366605    0.092918
H       2.003412    1.781409   -2.946651
H       1.727578    4.034278   -4.093011
H       0.619935    4.904954   -0.313485
