16

O      -0.333926    0.519294   -0.664195
C       0.183140    1.049303    0.278488
C       1.324678    2.080369    0.145723
C       1.438514    2.648141   -1.283889
C       2.765607    3.313326   -1.550240
C       2.883257    4.490841   -2.417842
O       2.959202    4.614563   -0.996815
C       1.167180    3.098322    1.185028
N       0.985940    3.862009    2.032867
H      -0.105712    0.816077    1.323501
H       2.239774    1.513911    0.385656
H       1.294727    1.811317   -1.974422
H       0.624754    3.357761   -1.457618
H       3.637674    2.661303   -1.459374
H       3.811870    4.675673   -2.955200
H       1.988723    4.909956   -2.876497
