22

C      -0.276174    1.025919   -1.691034
C      -0.021796   -0.193450   -0.829102
C       1.366243   -0.615187   -0.389637
C       2.620755    0.147287   -0.763745
C       0.369944   -0.111240    0.636928
C       0.544602    1.196966    1.381135
C      -0.766444    1.706107    1.972168
O      -0.487428    2.900840    2.687841
H       0.369304    1.869621   -1.436403
H      -0.108402    0.796074   -2.749466
H      -1.312863    1.366908   -1.590237
H      -0.687752   -1.018832   -1.071059
H       1.525348   -1.691087   -0.368989
H       2.470278    1.228810   -0.790817
H       3.425190   -0.051113   -0.046556
H       2.979811   -0.157486   -1.753248
H      -0.062947   -0.889243    1.263706
H       1.261392    1.068121    2.202018
H       0.954922    1.980835    0.738281
H      -1.494566    1.883691    1.164663
H      -1.197626    0.936626    2.633980
H      -1.311495    3.227889    3.059733
