16

C       0.058869    1.508624   -0.177722
C      -0.046700    0.021165    0.092793
O       1.190680   -0.725384    0.050459
C       0.519329   -0.634369    1.297338
C       1.212789    0.124933    2.418654
C       2.170682   -0.719972    3.132820
N       2.916959   -1.396194    3.698457
C      -1.171544   -0.626248   -0.546614
C      -2.119361   -1.133190   -1.083801
H       0.950613    1.938559    0.280666
H       0.115762    1.679733   -1.256149
H      -0.826853    2.028239    0.199602
H       0.045865   -1.561590    1.620557
H       1.740006    0.998105    2.027508
H       0.463592    0.482357    3.135447
H      -2.951735   -1.592572   -1.557900
