23

C      -0.035109    1.466700   -0.186362
C      -0.107787   -0.003975    0.136025
O       1.106451   -0.758636    0.062360
C       0.459812   -0.637761    1.340991
C       1.187400    0.090674    2.418230
C       0.730231   -0.032553    3.859589
C       2.055172   -0.622545    3.443632
C       2.203271   -2.132286    3.403619
C       3.316068    0.101638    3.878711
H       0.831822    1.943363    0.274958
H       0.039709    1.610111   -1.269510
H      -0.941080    1.978144    0.156835
H      -0.961569   -0.513919   -0.317943
H      -0.024178   -1.560782    1.665009
H       1.555705    1.067580    2.122427
H       0.719432    0.863624    4.471159
H      -0.086243   -0.717992    4.067131
H       1.269875   -2.638766    3.145939
H       2.959758   -2.434965    2.670705
H       2.519773   -2.509253    4.383247
H       3.620658   -0.210184    4.884990
H       4.147971   -0.113468    3.198060
H       3.170479    1.186378    3.896237
