23

C       0.015227    1.554041   -0.147477
C       1.532391    1.847090   -0.021005
C       2.000871    2.035761    1.442528
C       1.782190    0.835514    2.382240
C       0.321434    0.373905    2.545009
C      -0.271065   -0.501865    1.420224
C      -0.084684    0.013238   -0.035171
C       1.250275   -0.408025   -0.624899
C       2.125844    0.595395   -0.636981
H      -0.593950    2.088303    0.587062
H      -0.323963    1.863184   -1.141449
H       1.805408    2.752200   -0.576311
H       3.070446    2.284029    1.442278
H       1.485628    2.913464    1.855993
H       2.398292   -0.009936    2.054710
H       2.162331    1.123449    3.370085
H       0.238027   -0.199864    3.476171
H      -0.311616    1.258789    2.692368
H       0.157905   -1.509955    1.487517
H      -1.342989   -0.619328    1.622452
H      -0.916746   -0.373672   -0.634906
H       1.449342   -1.427947   -0.938126
H       3.160723    0.530444   -0.956595
