15

C       0.021579    1.498173   -0.045671
C       0.041934    0.002687    0.055861
C      -0.848653   -0.809812    0.924701
C       0.675669   -0.798254    1.171611
C       1.448966   -1.866425    0.496167
O       2.231673   -2.656505    0.945823
C       1.128079   -1.732885   -1.021573
O       1.489151   -2.436529   -1.912661
O       0.345090   -0.631541   -1.192909
H       0.992242    1.877210   -0.377850
H      -0.739180    1.821112   -0.762675
H      -0.211791    1.938950    0.927008
H      -1.435340   -0.302989    1.682281
H      -1.303553   -1.703033    0.510212
H       1.054426   -0.359167    2.084947
