19

O       0.100037    1.364837   -0.148043
C       0.059455   -0.033119   -0.011473
C       0.707974   -0.596095    1.262470
C       0.110404   -2.003337    1.363021
C      -1.375634   -1.790854    1.014395
C      -1.423548   -0.588775    0.027984
O      -2.275779    0.411360    0.609142
C      -1.902291   -0.944529   -1.304929
C      -2.287806   -1.206289   -2.413783
H      -0.472965    1.711083    0.548368
H       0.562843   -0.440023   -0.893649
H       1.799386   -0.573811    1.216130
H       0.397252    0.012019    2.122292
H       0.585256   -2.664799    0.628641
H       0.244150   -2.463681    2.345105
H      -1.856645   -2.679592    0.603590
H      -1.939564   -1.486136    1.900612
H      -2.519664    1.018069   -0.099825
H      -2.629986   -1.446113   -3.390288
