16

C      -0.086201    1.522618   -0.048449
C       0.118898    0.026679    0.016920
O       1.230429   -0.456259   -0.810159
C       1.753234   -1.217507    0.272820
C       2.179166   -0.298127    1.401674
C       0.723707   -0.637489    1.255421
O      -0.048827   -1.232610    2.216704
C       2.256078   -2.530383    0.052989
N       2.661461   -3.603298   -0.103344
H       0.804491    2.066783    0.276609
H      -0.319117    1.827452   -1.073093
H      -0.928094    1.809897    0.590015
H      -0.790966   -0.512336   -0.273907
H       2.668283   -0.808237    2.227032
H       2.579452    0.680294    1.151290
H       0.237834   -0.934939    3.086000
