20

C      -0.202588    1.506876    0.112856
C      -0.040799   -0.007347    0.004219
C      -1.339632   -0.688086   -0.420605
C       1.217213   -0.468127   -0.781224
O       1.804866   -1.059203    0.398433
C       0.683155   -0.670638    1.190349
C       0.852303   -0.223383    2.604242
C       0.166640   -1.547067    2.282516
H       0.731017    1.984407    0.424624
H      -0.500612    1.936486   -0.850362
H      -0.975467    1.770050    0.843853
H      -1.669747   -0.320450   -1.398889
H      -1.215358   -1.772888   -0.488532
H      -2.144097   -0.485867    0.295566
H       1.037427   -1.215235   -1.563960
H       1.841684    0.337370   -1.186661
H       1.855503   -0.266794    3.015025
H       0.245659    0.597883    2.972735
H      -0.905624   -1.624692    2.432531
H       0.720226   -2.458470    2.482332
