27

C      -0.562491    0.212811   -2.817837
C      -0.300741   -0.543039   -1.503618
C       0.797705    0.150856   -0.681974
C      -1.586034   -0.764977   -0.691581
C      -2.242566    0.520993   -0.201616
C      -2.501880   -1.890156   -1.134728
C      -1.732854   -2.027688    0.163473
C      -0.620459   -3.064034    0.234379
C      -2.503354   -1.967853    1.474691
H       0.342319    0.230819   -3.434685
H      -1.357309   -0.265185   -3.399231
H      -0.853993    1.253388   -2.642104
H       0.082137   -1.527732   -1.789944
H       1.008975   -0.393461    0.243807
H       1.728975    0.215017   -1.254800
H       0.510985    1.172704   -0.410993
H      -2.320210    1.252568   -1.012032
H      -3.257010    0.352455    0.163781
H      -1.674433    0.988529    0.610091
H      -3.575211   -1.730303   -1.086372
H      -2.188883   -2.502347   -1.976240
H      -0.099631   -3.206440   -0.714019
H       0.127155   -2.800098    0.992315
H      -1.039313   -4.036699    0.519474
H      -2.866201   -2.967511    1.742071
H      -1.862609   -1.624417    2.296231
H      -3.372131   -1.309181    1.433407
