23

C       0.707104    1.952665   -0.528427
C       0.523339    0.444806   -0.327069
C       1.367712   -0.412868   -1.291008
C       2.875029   -0.345811   -1.105937
C       3.440779   -1.555486   -1.114681
C       2.428666   -2.645470   -1.225406
C       1.452902   -2.785850   -0.064397
C       1.737899   -2.321408    1.347358
C       1.086950   -1.921426   -1.254002
H       1.736935    2.266287   -0.327985
H       0.466215    2.247680   -1.556181
H       0.055054    2.521738    0.141672
H       0.756084    0.180972    0.709370
H      -0.532554    0.188042   -0.478198
H       1.131906   -0.054459   -2.307051
H       3.407779    0.591204   -0.987713
H       4.503972   -1.749308   -1.021112
H       2.640737   -3.516156   -1.837513
H       0.921864   -3.736004   -0.087847
H       2.381605   -1.439972    1.369687
H       0.810785   -2.078975    1.878242
H       2.241923   -3.115020    1.911242
H       0.281659   -2.285775   -1.882684
