13

N      -0.021671    1.320518    0.010473
C      -0.071666    0.061851    0.003785
O       1.054968   -0.770564   -0.006759
C       0.716523   -2.175179   -0.012732
C      -0.766086   -2.108766   -0.004560
C      -1.216457   -0.842430    0.004809
N      -2.604202   -0.841114    0.012133
C      -2.891846   -2.100994    0.006664
O      -1.809083   -2.961710   -0.003741
H       0.946416    1.644739    0.007166
H       1.142917   -2.643514   -0.907904
H       1.152285   -2.653340    0.872680
H      -3.862087   -2.571737    0.009172
