16

C       2.021160   -0.807763    2.620444
C       1.130155   -1.115776    1.438263
C       0.192503   -0.087418    0.852702
C       0.159432    1.250122    1.375915
C       0.106076    2.379051    1.790314
N       1.354882   -0.596066    0.096567
C       2.478339    0.293731   -0.168673
H       2.971669   -1.346198    2.538973
H       2.231419    0.258254    2.719739
H       1.532512   -1.136672    3.543225
H       0.762914   -2.142147    1.425518
H      -0.761838   -0.429509    0.456601
H       0.053787    3.373302    2.159603
H       2.295380    0.807202   -1.117446
H       2.660055    1.057675    0.597830
H       3.381673   -0.313678   -0.281656
