18

C       0.057145    1.653024   -0.028987
C       0.099936    0.127715   -0.004575
C       0.763841   -0.553662   -1.213992
C       1.404894   -1.840382   -0.619488
N       1.645603   -1.472190    0.754001
C       0.876284   -0.422316    1.202181
O       0.821963   -0.019556    2.340753
C       0.501833   -3.058513   -0.773706
O       0.041740   -3.685489    0.142759
H       1.055145    2.070446   -0.200582
H      -0.606267    2.021138   -0.817163
H      -0.300686    2.025311    0.934229
H      -0.922924   -0.254956    0.117070
H       0.069169   -0.778601   -2.027658
H       1.553604    0.084689   -1.620695
H       2.337690   -2.078665   -1.151620
H       2.008011   -2.134265    1.423292
H       0.304218   -3.339338   -1.834738
