20

O      -0.785144    0.118249    0.794592
C      -0.090979    1.010989    0.349878
C       1.358701    1.192632    0.774853
C       2.338014    1.055379   -0.379519
C       2.776992    2.252484   -1.188284
C       3.743325    1.584594   -0.242999
C      -0.652036    1.974350   -0.652207
C      -1.386275    1.370008   -1.812351
N      -2.117207    2.051810   -0.755054
H       1.467404    2.189793    1.223127
H       1.563315    0.450465    1.552094
H       2.239695    0.123602   -0.930153
H       2.925045    2.128066   -2.255049
H       2.393183    3.227654   -0.906856
H       3.999378    2.107777    0.672511
H       4.554526    0.998614   -0.660135
H      -0.120418    2.908458   -0.797858
H      -1.358160    1.880621   -2.770634
H      -1.423783    0.284935   -1.855079
H      -2.485319    1.346214   -0.114801
