21

C      -0.297182    1.387800   -0.069828
O      -0.229414   -0.015847   -0.110108
C       0.774383   -0.485904   -0.987255
C       0.744678   -1.991654   -0.952361
C       0.018703   -2.796052   -2.020846
O      -0.549364   -2.148224   -3.117250
C       1.527733   -2.822710   -1.937221
O       2.197915   -2.125282   -2.952159
C       2.636433   -2.982085   -3.997407
H       0.649441    1.835350    0.275097
H      -0.535970    1.815699   -1.056764
H      -1.090305    1.657864    0.631851
H       0.598316   -0.114034   -2.007072
H       1.763074   -0.111302   -0.671738
H       0.705322   -2.392395    0.056702
H      -0.563281   -3.661012   -1.719863
H       0.181701   -1.749957   -3.608206
H       2.055134   -3.708659   -1.583891
H       1.797210   -3.510624   -4.469048
H       3.133133   -2.352804   -4.739149
H       3.352865   -3.726286   -3.621722
