19

C       0.051456    1.509358    0.005902
C      -0.052687    0.010886   -0.009955
C      -0.136705   -0.667826   -1.170637
C      -0.159490   -2.105956   -1.367702
C      -0.421252   -3.121676   -0.516213
C      -0.871525   -3.064331    0.885614
O      -1.066447   -4.096525    1.503130
C      -1.134613   -1.714978    1.542566
C      -0.020991   -0.675739    1.334680
H       0.967473    1.829350    0.520096
H       0.056472    1.933146   -1.001212
H      -0.782976    1.953320    0.564402
H      -0.118444   -0.087862   -2.090591
H       0.083105   -2.403572   -2.387078
H      -0.344541   -4.140266   -0.885835
H      -2.080696   -1.321046    1.146408
H      -1.285422   -1.914569    2.606223
H       0.958120   -1.161228    1.467420
H      -0.090015    0.079082    2.124154
