16

N       0.126363   -1.167869   -0.031233
C       0.075423   -0.016325    0.046230
C       0.021865    1.440978    0.122936
C       1.433102    2.081216    0.044133
C       1.290280    3.540722   -0.082548
N       1.172807    4.683313   -0.200491
N       2.191035    1.771567    1.249827
C       3.041538    0.576873    1.188986
C       3.643742    1.934802    1.157918
H      -0.600636    1.816360   -0.695006
H      -0.443869    1.740765    1.066129
H       1.929084    1.722503   -0.875266
H       3.058940   -0.017857    2.095981
H       3.046716    0.000036    0.267500
H       4.059366    2.276990    0.212304
H       4.114359    2.355202    2.040386
