21

C      -0.113276    1.599823   -0.055520
C       0.036167    0.089098    0.014798
C       1.185329   -0.617298   -0.747487
O       2.351369    0.072157   -0.267175
C       2.254496   -0.354246    1.101071
C       2.479871   -1.877378    0.975105
C       1.109310   -1.815067    0.287597
C       0.682636   -0.617018    1.226281
C       0.042378   -0.740781    2.584262
H       0.854974    2.089195    0.074269
H      -0.522450    1.911712   -1.023053
H      -0.793532    1.965944    0.721417
H      -0.912362   -0.418377   -0.201536
H       1.219810   -0.735913   -1.829742
H       2.823519    0.300040    1.760579
H       3.361209   -2.194361    0.412489
H       2.420632   -2.403650    1.931022
H       0.474793   -2.670987    0.062846
H       0.625705   -1.381056    3.255243
H      -0.047680    0.239791    3.066595
H      -0.964068   -1.167399    2.510151
