19

C       0.247788    1.585758    0.112455
O       1.658708    1.323996   -0.122962
C       1.427569   -0.082948    0.001886
C      -0.069909    0.094609    0.132578
C       0.531386   -0.589846   -1.089188
C       0.518771   -0.030480   -2.484558
C       1.233043   -0.851121   -3.586532
O       0.025521   -0.942457   -4.368423
C      -0.741779   -0.268853   -3.351148
H       0.110307    2.068528    1.086164
H      -0.201119    2.205227   -0.672771
H       2.157052   -0.666219    0.552473
H      -0.783694   -0.389904    0.784789
H       0.389151   -1.669030   -1.035409
H       0.841532    1.011178   -2.470663
H       2.037928   -0.341457   -4.129000
H       1.592238   -1.839534   -3.266764
H      -1.493669   -0.929395   -2.897103
H      -1.245389    0.624742   -3.739868
