19

C       0.156247    1.307436   -0.089313
C       0.367445   -0.123330   -0.589440
N      -0.764943   -1.037753   -0.587455
C      -1.895922   -0.651610   -0.178992
N      -2.969923   -1.542346   -0.183731
C      -4.233543   -1.225412    0.233909
O      -4.550205   -0.126859    0.656201
C      -5.269658   -2.346098    0.146933
O      -6.507218   -1.890622    0.600191
H       1.097593    1.860636   -0.156020
H      -0.586872    1.843943   -0.688721
H      -0.168664    1.330765    0.956269
H       0.750611   -0.099737   -1.618383
H       1.160880   -0.604254   -0.001829
H      -2.172522    0.332557    0.199118
H      -2.768279   -2.471778   -0.526423
H      -5.328838   -2.691659   -0.898278
H      -4.914267   -3.201388    0.745076
H      -6.354470   -0.964414    0.851396
