23

C      -0.117214    1.570705    0.005443
C       0.015440    0.052681   -0.020167
C       1.151282   -0.578187   -0.889161
C       2.122111   -0.287079    0.289950
C       0.840448   -0.606420    1.124779
O       0.633231   -0.146978    2.426059
C       0.669469   -2.124506    0.849479
C      -0.641801   -2.732623    1.340539
C       0.875696   -2.086419   -0.704368
H       0.840094    2.086397    0.113728
H      -0.583419    1.928194   -0.919133
H      -0.751630    1.880593    0.841889
H      -0.976314   -0.383793   -0.182335
H       1.356091   -0.221945   -1.898629
H       2.989311   -0.945006    0.409817
H       2.431809    0.754692    0.363089
H       1.211416   -0.638783    3.019628
H       1.498293   -2.664254    1.327579
H      -1.512541   -2.259481    0.875626
H      -0.685854   -3.802535    1.111376
H      -0.742930   -2.613782    2.424331
H      -0.020422   -2.410491   -1.243967
H       1.711129   -2.710688   -1.034923
