18

O      -0.031269    0.014294   -0.378158
C      -0.028622    1.150421    0.011027
O      -1.209090    1.739999    0.348796
C      -1.262031    3.028829    0.994542
C       0.016596    3.849844    0.844715
C       0.338955    4.139150   -0.638572
N       1.205394    3.012069   -1.052729
C       1.221424    2.035953    0.048755
C       1.192428    2.953463    1.271778
H      -2.121538    3.544028    0.554775
H      -1.478512    2.852385    2.055911
H      -0.085141    4.762581    1.437606
H      -0.576230    4.212753   -1.238825
H       0.879163    5.087294   -0.748144
H       0.919144    2.596788   -1.930865
H       2.090673    1.380026   -0.021491
H       2.130806    3.508535    1.350009
H       1.012498    2.423659    2.211279
