15

C      -0.046039    1.556361    0.058255
C       0.010552    0.018148   -0.012966
C       0.687943   -0.475383   -1.203211
C       1.254250   -0.869381   -2.198621
C       1.890297   -1.312297   -3.316605
C       2.456311   -1.705958   -4.311503
C       3.135272   -2.178269   -5.504927
H       0.960874    1.981775    0.065866
H      -0.579284    1.965383   -0.803870
H      -0.563333    1.874098    0.968308
H       0.516811   -0.372109    0.879874
H      -1.009032   -0.388349    0.018222
H       3.164876   -3.273419   -5.537750
H       2.628938   -1.832651   -6.413485
H       4.169382   -1.817092   -5.543256
