23

C      -1.491565   -0.074011   -0.528106
C      -0.009434    0.103822   -0.163352
C       0.241907   -0.390442    1.270780
C       0.859669   -0.594922   -1.227463
C       2.394122   -0.500511   -1.103088
C       2.907003    0.933734   -0.871398
O       2.928770   -1.396964   -0.129803
C       3.031208   -0.982762   -2.412311
O       2.638216   -0.691496   -3.510805
H      -1.701565    0.297943   -1.535892
H      -1.778270   -1.131873   -0.497808
H      -2.137070    0.465471    0.172737
H       0.207145    1.179996   -0.192300
H       0.181051   -1.482991    1.330842
H       1.219261   -0.079898    1.658446
H      -0.503998    0.021692    1.958367
H       0.606854   -1.663182   -1.249686
H       0.599170   -0.193362   -2.212932
H       2.559378    1.321485    0.091117
H       4.001084    0.947032   -0.863188
H       2.554748    1.602612   -1.661676
H       2.644705   -1.106781    0.741062
H       3.928182   -1.619353   -2.248193
