19

C       0.048165    1.533358    0.072430
C       0.007917    0.019467   -0.049343
C       0.752871   -0.513309   -1.274390
C       0.913197   -2.025150   -1.204237
N       2.126006   -2.483583   -0.519887
C       0.807581   -2.680277    0.130551
C       0.576723   -1.852716    1.348012
N       0.444805   -2.398565    2.482851
O       0.569486   -0.498792    1.178657
H       1.082421    1.880097    0.157497
H      -0.403385    1.997267   -0.809657
H      -0.499892    1.862679    0.958741
H      -1.038272   -0.317672   -0.097827
H       0.194207   -0.228301   -2.172143
H       1.743149   -0.050304   -1.335051
H       0.567114   -2.596774   -2.061463
H       2.438562   -3.373472   -0.899955
H       0.421975   -3.690291    0.210327
H       0.299502   -1.680335    3.196355
