21

C       0.300906    1.459858   -0.404890
C       1.519377    1.939265    0.422834
C       2.125305    0.672551    1.014450
C       2.344813   -0.492448    0.082878
O       3.139499   -1.559321    0.537379
C       2.604960   -2.027840    1.778067
C       1.112082   -1.635275    1.802695
C       1.070810   -0.432148    0.884336
C      -0.187021    0.168691    0.291826
H      -0.480207    2.220933   -0.477492
H       0.612266    1.229020   -1.429055
H       2.226795    2.515672   -0.183606
H       1.191837    2.592513    1.240521
H       2.760806    0.758549    1.890270
H       2.413961   -0.370807   -0.993574
H       2.776507   -3.106672    1.831152
H       3.138429   -1.560379    2.617588
H       0.485190   -2.434639    1.389655
H       0.765355   -1.432123    2.821288
H      -0.893849    0.407404    1.097347
H      -0.704099   -0.506848   -0.399496
