14

O      -0.080936   -0.036085    0.405214
C      -0.067331    1.153949    0.172523
N      -1.137269    2.052104    0.090811
C      -0.641100    3.299396   -0.188086
N       0.649485    3.299361   -0.294282
N       1.008640    1.988451   -0.070869
C       2.388749    1.553457   -0.136331
C       2.942768    1.556089   -1.488900
C       3.413624    1.555442   -2.593159
H      -2.095849    1.780090    0.221428
H      -1.257178    4.177232   -0.301483
H       2.992018    2.190984    0.519306
H       2.393933    0.539236    0.276903
H       3.825894    1.554508   -3.571867
