17

C      -0.009570   -1.127251   -0.616648
C      -0.021488   -0.016764   -0.158910
C      -0.006480    1.328055    0.405771
C       1.381961    1.944580    0.419268
O       1.828490    2.558421   -0.801675
C       1.583878    3.387342    0.313391
C       0.610946    4.563824    0.343046
O       1.592780    5.361868    1.040415
C       2.600316    4.328799    0.950845
H      -0.008440   -2.105725   -1.029085
H      -0.678435    1.982695   -0.161340
H      -0.386643    1.299777    1.436159
H       2.145034    1.347206    0.919439
H       0.366607    4.968210   -0.647428
H      -0.310039    4.438558    0.925734
H       2.994033    4.046363    1.934382
H       3.429110    4.606443    0.287331
