16

C      -0.026573    1.502708    0.097142
C       0.035719    0.016005    0.011495
C       0.030036   -0.759133   -1.084141
C       0.109066   -2.214649   -0.674129
O       0.159519   -2.202006    0.746707
C       0.118778   -0.865709    1.227443
C      -0.036853   -0.352154   -2.434613
C      -0.092710   -0.044798   -3.599012
H       0.855135    1.905163    0.611785
H      -0.082009    1.952309   -0.896518
H      -0.901082    1.827949    0.674805
H      -0.766242   -2.786176   -1.017530
H       1.004488   -2.707853   -1.081247
H       1.018003   -0.650889    1.828915
H      -0.749365   -0.728246    1.893707
H      -0.142429    0.234805   -4.622119
