15

N       0.890596   -0.119843    0.342052
C      -0.251622    0.355094    0.043020
N      -1.358341   -0.466527    0.029345
C      -1.303537   -1.883437    0.344075
C      -2.756021   -2.325184    0.187415
O      -3.222065   -3.423461    0.342198
N      -3.447925   -1.181713   -0.177431
C      -2.647046   -0.039155   -0.285876
N      -2.948276    1.153380   -0.596633
H       1.595827    0.613160    0.305949
H      -0.501865    1.384129   -0.221627
H      -0.649109   -2.432409   -0.340310
H      -0.943622   -2.065512    1.361562
H      -4.439993   -1.180328   -0.353263
H      -3.939973    1.259773   -0.791247
