21

O      -0.161336    1.458679   -0.049768
C      -0.017433    0.078551   -0.077527
C       0.604449   -0.669884   -1.256087
C      -0.422896   -1.834798   -1.013121
C       0.148342   -3.137564   -0.443408
C       1.182082   -2.866574    0.661720
C       0.671540   -1.878834    1.728304
C      -0.185997   -0.744986    1.184315
C      -1.137482   -0.946066    0.029628
H       0.595788    1.832182    0.414186
H       0.376622   -0.142908   -2.186270
H       1.675524   -0.893471   -1.234671
H      -1.035046   -2.032782   -1.895367
H      -0.679102   -3.741794   -0.047020
H       0.613966   -3.729980   -1.240194
H       1.471720   -3.805942    1.144698
H       2.095915   -2.472083    0.204414
H       0.051842   -2.426309    2.452309
H       1.519236   -1.479847    2.299719
H      -0.621771   -0.118876    1.961142
H      -2.207225   -0.796081    0.109701
