18

C      -0.022095    1.468816    0.245154
C       1.489616    1.593968   -0.188862
C       1.248561    0.267514   -0.893674
C       0.053908   -0.087440   -0.001304
C      -0.456826   -0.815273   -1.253612
C       0.723869   -1.800678   -1.594674
C       1.277826   -0.947921   -2.670653
C       0.342526    0.178669   -2.175832
N       1.979378   -0.967478   -1.354171
H      -0.247680    1.757996    1.272051
H      -0.702304    1.996996   -0.425709
H       1.794521    2.455541   -0.788553
H       2.154424    1.498117    0.675299
H       0.206901   -0.660031    0.916689
H      -1.469485   -1.171604   -1.444149
H       0.796930   -2.867698   -1.425722
H       1.763372   -1.173903   -3.612703
H      -0.077420    1.015022   -2.726960
