19

C      -0.512652    1.425569   -0.026873
C       0.061518    0.013218    0.000793
C       1.167407   -0.244196   -1.035808
O       1.913128   -1.382490   -0.548443
C       1.660703   -1.568035    0.763763
O       2.088417   -2.488020    1.404781
C       0.745661   -0.457328    1.298339
C       1.605377    0.607315    1.998617
O      -0.189703   -1.008129    2.201349
H       0.261353    2.184122    0.125124
H      -0.993096    1.629089   -0.989554
H      -1.268644    1.548446    0.753822
H      -0.746440   -0.705966   -0.177699
H       0.788476   -0.500452   -2.027121
H       1.852197    0.607112   -1.131076
H       2.307037    1.096642    1.314714
H       0.956532    1.367491    2.440310
H       2.183453    0.137343    2.799178
H       0.266276   -1.732788    2.652638
