20

C      -0.003745    1.488103   -0.223930
C       0.014759   -0.022854    0.076055
C       0.693985   -0.314539    1.427630
C      -1.360682   -0.624911   -0.001339
C      -1.884342   -1.585311   -0.845418
C      -3.234630   -1.736489   -0.439246
N      -4.211162   -2.542296   -1.028821
N      -3.534789   -0.940492    0.581412
N      -2.376607   -0.266904    0.822119
H       1.013558    1.892631   -0.228691
H      -0.460844    1.691250   -1.196214
H      -0.573690    2.037601    0.533835
H       0.603841   -0.512767   -0.707619
H       0.154288    0.159454    2.255395
H       0.731350   -1.389140    1.626666
H       1.717407    0.074141    1.436772
H      -1.369666   -2.091208   -1.646738
H      -3.865632   -3.455307   -1.292502
H      -5.021571   -2.633779   -0.429048
H      -2.360710    0.408503    1.565224
