17

O      -0.187859   -0.048437   -0.137221
C      -0.076691    1.132176    0.068342
C       1.232929    1.878459    0.062373
C       1.179992    3.189360   -0.777878
N       0.891017    3.936039    0.459656
C       1.465253    5.256153    0.610295
C       1.109780    5.847256    1.905272
N       0.847643    6.302492    2.933662
C       1.400636    2.825606    1.288177
H      -0.963037    1.772264    0.282451
H       2.049699    1.189646   -0.147371
H       2.163954    3.418001   -1.216962
H       0.413398    3.275092   -1.555534
H       2.569598    5.260888    0.524870
H       1.080055    5.904690   -0.185589
H       0.813263    2.617595    2.187477
H       2.460401    2.931636    1.567255
