21

C      -0.270259    1.557408    0.011172
C       0.040181    0.068418    0.029372
C       1.190193   -0.511984   -0.866819
C       1.661866   -1.442706    0.299265
C       2.930447   -0.981350    1.064590
C       2.048483   -0.018825    1.911116
C       1.376114   -0.620312    3.167897
O       0.168011   -0.963322    2.437069
C       0.762318   -0.548037    1.216539
H       0.634305    2.150351    0.187316
H      -0.686601    1.865350   -0.953948
H      -0.998714    1.816729    0.786853
H      -0.874022   -0.511613   -0.150697
H       0.865209   -1.023157   -1.774513
H       1.935108    0.241072   -1.142471
H       1.485668   -2.508186    0.147789
H       3.421162   -1.763784    1.652093
H       3.689882   -0.491759    0.447563
H       2.322049    1.035042    1.971096
H       1.867408   -1.506265    3.590022
H       1.158175    0.089489    3.973477
