19

C       0.082590    1.485154    0.063059
C       0.003502   -0.001353    0.130524
O      -0.716382   -0.710683   -0.891178
C      -1.236130   -1.650113    0.090882
C      -0.414204   -1.021388    1.202783
C       1.014455   -0.916576    0.735782
C       2.001607   -1.902516    0.123957
C       3.005306   -1.232159    1.088413
O       1.974107   -0.376356    1.645854
H       0.722004    1.852952    0.869704
H       0.524569    1.794093   -0.891433
H      -0.905326    1.948518    0.145574
H      -2.318430   -1.522362    0.209323
H      -1.017985   -2.691547   -0.176895
H      -0.692791   -0.892924    2.240705
H       1.797799   -2.955196    0.330516
H       2.193069   -1.770282   -0.941587
H       3.443367   -1.879191    1.855315
H       3.798518   -0.645549    0.611829
