18

C       0.012162    1.519371   -0.076020
C      -0.030834   -0.005991    0.002797
C      -1.461557   -0.541955   -0.045835
N       0.849204   -0.481626   -1.162347
C       1.592110   -1.313023   -0.569204
O       2.921461   -1.016382   -0.223531
C       2.308814   -0.998067    1.143327
C       1.223907   -1.918070    0.828662
C       0.754154   -0.564792    1.236069
H       1.045080    1.870758   -0.121647
H      -0.512954    1.876537   -0.965659
H      -0.469025    1.947534    0.811722
H      -1.925563   -0.255853   -0.994124
H      -1.476611   -1.632972    0.027005
H      -2.067836   -0.134299    0.770821
H       3.017431   -0.925974    1.959260
H       0.981787   -2.929445    1.122907
H       0.404101   -0.355762    2.245356
