17

N       0.034984    1.408146   -0.196317
C      -0.021076    0.017932   -0.054471
C      -1.129404   -0.808591   -0.009051
C      -2.596411   -0.542793   -0.069645
C      -3.052346   -0.076687   -1.456676
O      -4.442772    0.185880   -1.373373
N      -0.564915   -2.047556    0.060230
N       0.771121   -2.004599    0.053551
N       1.106483   -0.740813   -0.012065
H       0.988096    1.730291   -0.076095
H      -0.571703    1.899994    0.448569
H      -3.163169   -1.438930    0.206456
H      -2.877074    0.230220    0.656002
H      -2.481929    0.819149   -1.742409
H      -2.829316   -0.859968   -2.197742
H      -4.739515    0.517348   -2.225780
H      -1.028798   -2.939949    0.126015
