19

C       0.034332    1.615478   -0.025561
C       0.001173    0.080330   -0.054449
C      -1.427356   -0.463625    0.122739
C      -2.079234   -0.023505    1.421916
O      -3.147061    0.531651    1.483714
C       0.831855   -0.527445   -1.240753
C       1.991851   -0.900377   -0.269465
C       1.059062   -0.535350    0.892666
O       1.079380   -0.733643    2.074346
H       1.049805    1.997503   -0.171084
H      -0.596253    2.020693   -0.824253
H      -0.336065    2.003600    0.928059
H      -2.066651   -0.148450   -0.708897
H      -1.396143   -1.562583    0.130399
H      -1.492117   -0.257402    2.334738
H       0.354176   -1.403096   -1.685193
H       1.083404    0.177643   -2.034351
H       2.353657   -1.931324   -0.273653
H       2.857712   -0.233658   -0.329702
