22

C       0.428473    1.565672    0.002230
C      -0.170546    0.164593   -0.102829
N       0.477360   -0.569830   -1.186601
C       1.621491   -1.416118   -0.861945
C       0.337153   -2.023050   -1.317067
C      -0.460672   -2.876796   -0.337616
O       0.123261   -4.150160   -0.136533
C       0.198054   -2.450771   -2.764327
O       0.603872   -3.819829   -2.876334
H       1.494556    1.514805    0.246466
H       0.324993    2.100314   -0.945976
H      -0.071747    2.141469    0.787032
H      -0.081733   -0.340578    0.872217
H      -1.240439    0.231977   -0.334392
H       2.475436   -1.354055   -1.532055
H       1.875376   -1.550531    0.189057
H      -0.508588   -2.400531    0.644786
H      -1.498412   -2.966380   -0.704670
H       0.323162   -4.491377   -1.018778
H      -0.851207   -2.334667   -3.076500
H       0.813774   -1.800747   -3.398898
H       0.307948   -4.160846   -3.724919
