19

N       0.083401   -0.123966   -1.396765
C      -0.490559    0.297831   -0.344296
N      -1.854887    0.126956   -0.179357
C      -2.554162    0.555918    0.934386
O      -2.016423    1.126699    1.860211
C      -4.046630    0.228698    0.929052
C      -4.714655    0.134035   -0.426595
C      -4.738524   -1.173843   -1.195074
C      -6.002244   -0.631406   -0.578185
H       1.080412    0.080387   -1.358574
H      -0.034929    0.809304    0.505621
H      -2.349966   -0.335833   -0.928914
H      -4.164478   -0.722574    1.465955
H      -4.520957    0.990853    1.554376
H      -4.630320    1.033009   -1.031678
H      -4.638046   -1.143635   -2.274467
H      -4.287444   -2.045799   -0.731491
H      -6.394511   -1.138414    0.297106
H      -6.763512   -0.228594   -1.236306
