17

O       0.765573    0.147842    0.220452
C       0.433486    1.299119    0.246219
C      -0.953346    1.993987    0.285995
C      -0.220114    3.306993   -0.034980
C       0.766066    3.643212    1.026904
C       0.559479    3.409956    2.496432
C       1.043013    2.227909    3.226886
O       1.738142    3.470720    3.303159
C       1.163739    2.587891    0.000191
H      -1.572760    1.623106   -0.535548
H      -1.526982    1.947480    1.214935
H      -0.545160    4.026048   -0.775162
H       1.291842    4.578863    0.842297
H      -0.285390    3.954934    2.922949
H       0.531770    1.919187    4.138000
H       1.559847    1.435246    2.691107
H       2.045603    2.714916   -0.615429
