14

C       0.044211    1.504412   -0.029666
C      -0.065257    0.021147    0.063669
C      -1.125674   -0.732054   -0.292454
N      -1.123968   -2.111627   -0.164118
C      -0.061057   -2.655943    0.312982
C       1.138826   -1.921631    0.726744
N       2.225708   -2.369555    1.204436
O       1.056858   -0.550858    0.567164
H       0.885943    1.786262   -0.671319
H      -0.872974    1.932023   -0.437684
H       0.231208    1.937873    0.958720
H      -2.021365   -0.277255   -0.694229
H      -0.030984   -3.738979    0.425244
H       2.178670   -3.384637    1.279375
