23

C      -0.039457    1.528985    0.123915
C       0.000803    0.074010    0.073226
C       0.047142   -1.128791    0.031417
C       0.068543   -2.586456   -0.021448
C      -1.338594   -3.195516   -0.187106
C      -1.386652   -4.733213   -0.050325
C      -2.843181   -5.212269   -0.129751
C      -0.538015   -5.438966   -1.111712
O      -0.817385   -5.131074    1.205588
H       0.657266    1.973457   -0.595796
H      -1.040215    1.909757   -0.109637
H       0.231040    1.903093    1.117834
H       0.714904   -2.909864   -0.846477
H       0.516163   -2.994682    0.892285
H      -1.996534   -2.760094    0.576347
H      -1.757777   -2.898451   -1.155267
H      -3.289497   -4.976813   -1.101279
H      -2.892531   -6.294255    0.022452
H      -3.455036   -4.728750    0.641341
H       0.519359   -5.188380   -0.999273
H      -0.635627   -6.523170   -1.007736
H      -0.859899   -5.155631   -2.118164
H      -1.373773   -4.773255    1.906284
