13

N       0.025067   -1.184221   -0.043613
C       0.017375   -0.027245   -0.026274
C      -0.011611    1.393734    0.008125
C       0.253603    2.275164   -1.199326
C       1.131682    2.437671    0.001445
O       0.500126    3.226595    0.997383
C      -0.569769    2.253307    1.146963
C       2.551818    2.289356    0.018845
N       3.701724    2.168225    0.022710
H       0.698104    1.755400   -2.040758
H      -0.438011    3.076780   -1.440069
H      -1.559057    2.693369    0.993676
H      -0.507424    1.763807    2.122028
