15

O       0.118452    1.524155   -0.083242
C       0.033570    0.134404   -0.008389
C       0.657230   -0.536682   -1.262364
C      -0.059677   -0.195150   -2.481620
C      -0.666002    0.076665   -3.482292
C       0.727313   -0.354154    1.266157
O       1.290731    0.440265    1.993188
C       0.666453   -1.766462    1.559540
C       0.594372   -2.946039    1.788552
H       0.646325    1.798285    0.684336
H      -1.019448   -0.185003    0.053632
H       1.702589   -0.212777   -1.335219
H       0.660783   -1.624451   -1.124345
H      -1.194576    0.323969   -4.369234
H       0.538899   -3.986086    2.004110
