23

C      -1.097751   -1.009816   -0.251906
C       0.168132   -0.173602   -0.044121
C       0.823417   -0.359672    1.336634
C       1.317678   -1.803290    1.608046
C       2.644645   -1.663760    2.391831
C       3.068552   -0.249375    2.083885
C       2.098480    0.452660    1.502491
O      -0.128304   -0.083157    2.387746
C      -0.472148    1.267563    2.596325
H      -1.840423   -0.787706    0.518685
H      -1.544085   -0.805357   -1.229860
H      -0.882339   -2.082181   -0.203665
H       0.916664   -0.419734   -0.806996
H      -0.066216    0.888355   -0.191032
H       0.554941   -2.369958    2.144748
H       1.506723   -2.308201    0.655778
H       2.504422   -1.799699    3.472254
H       3.391641   -2.403625    2.083003
H       4.052353    0.134659    2.334265
H       2.172277    1.490135    1.195587
H       0.391062    1.875673    2.901698
H      -0.929340    1.735962    1.712064
H      -1.206977    1.280589    3.405945
