13

O      -0.042588    1.345251    0.009772
C       1.142565    1.992110    0.001744
N       2.311444    1.461127   -0.012326
C       2.417104    0.086607   -0.020578
C       1.298297   -0.687241   -0.013861
N       1.108869   -2.045898   -0.019195
C      -0.211085   -2.184939   -0.007127
C      -0.965838   -0.956324    0.006539
C       0.010334   -0.005596    0.002155
H       0.997126    3.065646    0.008793
H       3.421356   -0.323212   -0.032418
H      -0.654593   -3.175378   -0.008079
H      -2.037155   -0.838600    0.017464
