21

C      -0.073725    1.460029    0.028695
C       0.024882   -0.052187   -0.004695
C       0.735005   -0.659570   -1.189476
C       1.394619   -0.650613    0.182371
C       1.439046   -2.208091    0.146095
O       2.562377   -2.907041    0.553016
C       0.095314   -2.865528   -0.047624
C       0.807835   -2.218990   -1.224936
C       1.183779   -2.962713   -2.472319
H       0.818286    1.925336   -0.404347
H      -0.942085    1.810427   -0.539623
H      -0.174211    1.825451    1.056374
H      -0.842573   -0.547476    0.420126
H       1.002221   -0.061588   -2.053227
H       2.249931   -0.067264    0.501493
H       2.466821   -3.113386    1.490076
H       0.170239   -3.949773   -0.066305
H      -0.836001   -2.502237    0.374091
H       0.353239   -2.988715   -3.188538
H       2.037698   -2.490276   -2.971717
H       1.462729   -3.995457   -2.242851
