14

N       0.041472    1.357986   -0.127457
C      -0.024072   -0.015137   -0.025468
N      -1.125087   -0.714041   -0.003704
C      -0.678415   -2.034952   -0.009252
C      -1.104328   -3.328276   -0.000596
O      -0.009637   -4.151654   -0.011195
C       1.130731   -3.387430   -0.014543
C       0.753985   -2.085474   -0.017568
N       1.162105   -0.754354    0.019356
H       0.743898    1.796740    0.452481
H      -0.868785    1.780637   -0.006167
H      -2.061234   -3.819349    0.010204
H       2.060747   -3.927026   -0.030118
H       2.039637   -0.401042   -0.323678
