21

C       0.016900    1.536224    0.022486
C      -0.149500    0.039898   -0.176215
O       0.908795   -0.425789   -1.000262
C       0.896639   -1.801925   -1.214174
C       0.058357   -2.448563   -2.358925
C       0.396141   -1.582841   -3.587384
C       1.944944   -1.540917   -3.388911
C       2.006555   -2.390731   -2.104857
O       1.084665   -3.486579   -2.401582
H       0.978677    1.754889    0.494914
H      -0.019280    2.058178   -0.937934
H      -0.781593    1.926876    0.660211
H      -0.126459   -0.486236    0.791882
H      -1.122186   -0.182975   -0.642669
H       0.786923   -2.372015   -0.283521
H      -0.953630   -2.833241   -2.233368
H       0.096457   -2.074619   -4.514755
H      -0.065403   -0.593716   -3.540358
H       2.492607   -2.018768   -4.203377
H       2.329847   -0.530739   -3.236341
H       2.974127   -2.711481   -1.719952
