14

O       0.092097    1.259232   -0.076528
C       0.157453   -0.074084   -0.085492
N      -0.067913   -0.766392   -1.195553
N      -0.086670   -2.040239   -0.673209
C       0.591185   -3.329258   -0.931625
C       2.025265   -3.278019   -0.484020
C       0.916600   -3.387165    0.561438
C       0.293491   -2.012393    0.626190
N       0.446485   -0.782733    1.068019
H       0.311963    1.540174    0.820205
H       0.153845   -4.073519   -1.582440
H       2.610421   -4.178368   -0.653004
H       2.581489   -2.351085   -0.577138
H       0.812395   -4.216298    1.245501
