16

O       0.433237    0.048240   -0.014996
C       0.666206    1.178956    0.290841
O       0.437183    2.200103   -0.570961
C       0.816642    3.531540   -0.304514
C       1.377497    3.973616    1.108965
N       2.657260    3.322362    0.670432
C       2.306860    3.927069   -0.656284
C       2.219812    5.430621   -0.372603
C       1.589679    5.462864    0.808875
H       1.052977    1.499141    1.266051
H       0.037591    4.161611   -0.730920
H       0.935057    3.675151    2.058966
H       3.477235    3.762843    1.089868
H       2.814090    3.557115   -1.545774
H       2.525614    6.234963   -1.025976
H       1.234099    6.298319    1.394214
