24

C       0.078549    1.641526   -0.099987
N       0.006016    0.196371    0.028134
C       0.511951   -0.518576   -0.890441
C       1.203059   -0.025165   -2.141810
O       0.500302   -1.867436   -0.872194
C      -0.095251   -2.656605    0.205865
C      -1.601244   -2.388826    0.304429
C       0.160683   -4.092831   -0.261787
C       0.625677   -2.391763    1.532338
H       1.113089    2.013308   -0.140681
H      -0.436131    2.015265   -0.997527
H      -0.400976    2.101566    0.768096
H       2.065337    0.597062   -1.880151
H       1.538311   -0.862308   -2.753051
H       0.523787    0.600492   -2.730256
H      -2.078158   -2.541912   -0.668789
H      -2.049729   -3.090272    1.015452
H      -1.796490   -1.370516    0.637984
H       1.233231   -4.276339   -0.372092
H      -0.240640   -4.804672    0.465206
H      -0.319501   -4.274565   -1.227501
H       0.450864   -1.373042    1.875838
H       0.261250   -3.092322    2.290711
H       1.702769   -2.548258    1.416523
