23

C      -0.039236    1.443924   -0.399881
C       0.041782   -0.048894   -0.061141
C      -1.333740   -0.659844    0.135283
O      -2.166843   -0.592566   -1.051561
C      -2.605524   -1.962238   -0.874111
C      -2.238404   -2.854324   -2.053607
C      -0.717380   -3.054997   -1.909826
C      -0.488325   -3.120476   -0.382602
C      -1.547140   -2.190753    0.240565
H       0.956420    1.868614   -0.558817
H      -0.626272    1.596659   -1.309838
H      -0.519811    2.007891    0.407195
H       0.576775   -0.577646   -0.857420
H       0.617893   -0.197026    0.862136
H      -1.837232   -0.136820    0.964881
H      -3.663942   -2.004691   -0.591971
H      -2.766709   -3.811073   -1.951983
H      -2.533084   -2.409808   -3.008664
H      -0.353490   -3.947025   -2.426899
H      -0.195217   -2.194134   -2.337961
H      -0.666329   -4.141678   -0.025978
H       0.534711   -2.859927   -0.095202
H      -1.892788   -2.536605    1.215772
