19

O       0.744107    0.183616    0.380347
C      -0.241176    0.240845   -0.615281
C      -1.562867   -0.411991   -0.178764
O      -2.580999   -0.269603   -1.168293
C      -1.378457   -1.871038    0.181746
N      -0.251148   -2.405967    0.488611
C      -0.533145   -3.815699    0.816143
C      -1.986316   -4.068967    0.324404
N      -2.483767   -2.691782    0.230842
H       0.835481   -0.763517    0.592188
H      -0.436778    1.294534   -0.839971
H       0.085593   -0.243801   -1.555371
H      -1.939687    0.111442    0.707676
H      -2.190259   -0.497619   -2.020292
H       0.197378   -4.479044    0.345671
H      -0.452318   -3.956499    1.901655
H      -2.002801   -4.568816   -0.654304
H      -2.577962   -4.665193    1.023468
H      -3.257717   -2.457961   -0.372997
