19

C       0.015246    1.537948    0.130231
C      -0.016854    0.012366   -0.076811
C      -1.368129   -0.538245   -0.048716
C      -2.493030   -0.971250   -0.042952
C      -3.846933   -1.528399    0.022879
O      -3.839897   -2.945232    0.114579
C      -4.639991   -0.877672    1.191248
C      -6.024975   -1.321786    1.251472
C      -7.171461   -1.679654    1.284995
H       1.045716    1.903625    0.100333
H      -0.554534    2.047852   -0.651123
H      -0.419250    1.808834    1.096256
H       0.457524   -0.238815   -1.033949
H       0.589319   -0.475353    0.697286
H      -4.383395   -1.311756   -0.907862
H      -3.219630   -3.187765    0.811194
H      -4.121723   -1.110173    2.130319
H      -4.595683    0.211949    1.075849
H      -8.182617   -2.001280    1.319622
