20

C       0.058250    1.675569   -0.053503
C      -0.171598    0.161704   -0.096732
C       0.710367   -0.533087   -1.121445
O       2.098976   -0.366072   -0.766962
C       2.809617   -1.457584   -1.182238
O       4.002443   -1.549084   -1.099740
N       1.916326   -2.376340   -1.699305
C       0.550635   -2.067661   -1.293772
C       0.110614   -2.843310   -0.048510
H       1.097482    1.901108    0.198484
H      -0.161006    2.137141   -1.022427
H      -0.586059    2.145369    0.694928
H       0.012959   -0.271423    0.891917
H      -1.217835   -0.052742   -0.349645
H       0.569942   -0.061400   -2.104288
H       2.240857   -3.328571   -1.766089
H      -0.147393   -2.269203   -2.113423
H       0.766974   -2.635350    0.801789
H      -0.916004   -2.591901    0.233398
H       0.145066   -3.919603   -0.246959
