17

C      -0.039719    1.562835    0.024786
C       0.075349    0.056747   -0.103833
C       0.760222   -0.630295   -1.307165
C       2.195483   -0.044162   -1.305974
C       2.342455   -0.689780    0.071638
N       1.046932   -0.635114    0.824982
C       1.264282   -1.676983   -0.228491
C       1.136620   -3.078105   -0.064217
N       1.027885   -4.227157    0.026692
H       0.919462    2.070854   -0.099459
H      -0.736544    1.956638   -0.722883
H      -0.426668    1.820263    1.015557
H      -0.895957   -0.410919    0.084793
H       0.237378   -0.848808   -2.235270
H       2.833727   -0.555303   -2.030085
H       2.315269    1.037194   -1.406925
H       3.231516   -0.839196    0.669253
