16

C       0.014531   -1.210669    0.035225
C       0.028754   -0.008046    0.023107
C       0.022431    1.413254   -0.051187
C      -0.737033    2.255361   -1.095171
C       0.433503    3.286592   -1.100760
C       1.178800    2.431903   -0.056798
N       0.350395    2.213122    1.125985
C       2.588338    2.246691    0.010667
C       3.783264    2.109725    0.017966
H       0.009948   -2.272117    0.064025
H      -0.845567    1.742816   -2.052132
H      -1.719672    2.608764   -0.767516
H       0.950461    3.325148   -2.060720
H       0.208549    4.307473   -0.776672
H      -0.315982    2.970373    1.277314
H       4.836948    1.980353    0.041119
