19

O       0.015350    1.469481   -0.074015
C       0.016056    0.066879    0.037851
C       0.151535   -0.613382    1.437920
C      -0.914179    0.155887    2.237791
C      -2.128163   -0.114495    1.291714
C      -2.765172   -1.423910    1.763687
O      -1.690048   -2.373961    1.648221
C      -0.720034   -1.768686    0.815937
C      -1.361358   -0.601660    0.021617
H       0.924875    1.779495   -0.019809
H       0.685482   -0.391290   -0.702429
H       1.121728   -0.792597    1.902444
H      -1.072815   -0.248399    3.240596
H      -0.669196    1.216511    2.311390
H      -2.821659    0.714719    1.157527
H      -3.099078   -1.390448    2.806346
H      -3.611569   -1.736948    1.133753
H      -0.171979   -2.532734    0.265092
H      -1.938111   -0.747898   -0.891022
