19

O      -0.368646    1.373780   -0.810543
C      -0.120727    0.167303   -0.094143
C      -1.431620   -0.566924    0.052570
C      -1.963096   -1.336961   -1.140772
C      -1.421156   -2.073519    0.056470
O      -0.177726   -2.713788   -0.008047
C      -2.417594    0.119508    0.954342
C      -3.454003    1.019693    0.441648
O      -3.780314   -0.305201    0.881835
H       0.459889    1.859170   -0.865447
H       0.601111   -0.475003   -0.612309
H       0.290627    0.384336    0.905698
H      -3.035692   -1.349676   -1.296067
H      -1.352984   -1.320895   -2.037272
H      -2.149577   -2.554651    0.708532
H      -0.275675   -3.489705   -0.569528
H      -2.061029    0.284785    1.973738
H      -3.835250    1.822968    1.069531
H      -3.522771    1.184874   -0.631112
