20

C       0.409021    1.397172   -0.269835
C       0.127518   -0.049861    0.082617
O       0.899892   -0.985581   -0.716295
C       1.446954   -1.647320    0.461770
C       2.964795   -1.635511    0.399582
O       3.413771   -2.263053   -0.785303
C       0.726728   -0.647668    1.359559
C       1.148796    0.032580    2.601931
N       0.062472   -0.970716    2.608963
H       1.470027    1.631373   -0.146894
H       0.127780    1.593413   -1.309252
H      -0.175557    2.069277    0.368494
H      -0.946905   -0.265581   -0.020654
H       1.070555   -2.674736    0.541177
H       3.325049   -0.596203    0.468877
H       3.385123   -2.195667    1.242281
H       2.929490   -1.841140   -1.505833
H       2.053970   -0.272868    3.119732
H       0.895456    1.083540    2.719262
H      -0.845112   -0.512589    2.659889
