16

C      -0.335079    1.181387   -0.151908
C       1.118104    1.101961    0.242564
C       0.333015   -0.158733    0.005454
N       0.001406   -0.951138    1.151831
C      -1.103699   -1.749036    1.157719
N      -2.078231   -1.675402    0.274752
O      -2.986289   -2.659523    0.741528
C      -2.432182   -3.191719    1.822736
N      -1.282268   -2.698677    2.149967
H      -1.048750    1.464704    0.611739
H      -0.588458    1.500760   -1.155750
H       1.875079    1.370116   -0.485285
H       1.371102    1.341624    1.269371
H       0.534625   -0.715137   -0.908638
H       0.763244   -1.313356    1.705498
H      -2.981862   -3.975449    2.324379
