21

C      -0.003702    1.514770    0.043987
C       0.023248    0.006594    0.033654
N       0.069764   -0.679968    1.110787
O       0.090734    0.142736    2.252877
C      -0.004403   -0.763005   -1.285170
C       0.029986   -2.282504   -1.050826
C      -1.298033   -0.404137   -2.051945
C       1.224925   -0.359411   -2.131358
H       0.880778    1.902821    0.559098
H      -0.041644    1.937959   -0.959500
H      -0.869107    1.871244    0.611675
H       0.125383   -0.505728    2.963578
H      -0.826800   -2.614069   -0.459542
H       0.008984   -2.803007   -2.014182
H       0.933477   -2.582715   -0.514879
H      -1.369667    0.666196   -2.266582
H      -1.324500   -0.934922   -3.009452
H      -2.184849   -0.694947   -1.479983
H       2.155710   -0.617508   -1.616402
H       1.210154   -0.890486   -3.088955
H       1.244758    0.712426   -2.349454
