16

N       0.262152    0.940532    0.649933
C       0.071900   -0.172780    0.112228
O       0.956981   -1.033028   -0.518023
C      -0.120464   -1.995129   -0.798553
C      -1.131661   -1.076501   -0.076111
C      -1.590071   -1.818845    1.201133
C      -0.490832   -2.864171    1.481287
C       0.049006   -3.231048    0.097836
O       0.484987   -4.292671   -0.257999
H       1.240720    1.228166    0.596085
H      -0.195943   -2.213372   -1.863006
H      -1.946618   -0.642067   -0.653719
H      -1.747431   -1.124789    2.029144
H      -2.541792   -2.321721    1.001957
H       0.331085   -2.422773    2.059203
H      -0.830366   -3.751773    2.016641
