13

C       0.178747    1.518067    0.044004
C      -0.006781    0.052135    0.044927
C      -1.090286   -0.739097   -0.020230
O      -0.664017   -2.069412    0.020936
C       0.694122   -2.061816    0.111971
O       1.403646   -3.010950    0.168546
O       1.109916   -0.749862    0.127444
C      -2.458561   -0.455509   -0.114863
C      -3.634653   -0.210086   -0.196285
H       0.798193    1.832652   -0.802936
H      -0.792611    2.010851   -0.025970
H       0.679302    1.848671    0.960596
H      -4.672607    0.004583   -0.268237
