20

C      -0.037464    1.494974   -0.052423
C      -0.064407   -0.000154   -0.025016
C       0.534949   -1.014382   -0.935685
N       1.199315   -0.719720    0.366002
C       0.746197   -2.052047    0.888402
C      -0.341865   -2.101885   -0.197068
C      -0.921923   -3.380515   -0.739904
C      -1.252734   -0.909296    0.238184
O      -1.789178   -0.872229    1.541530
H       0.937759    1.853530   -0.391739
H      -0.807889    1.890202   -0.723430
H      -0.218149    1.901470    0.948195
H       1.010339   -0.940972   -1.905184
H       1.548582   -2.777509    0.725549
H       0.424054   -2.059569    1.934375
H      -1.498721   -3.902684    0.033591
H      -1.593049   -3.192264   -1.585531
H      -0.137515   -4.064387   -1.081425
H      -2.027400   -0.729151   -0.521604
H      -2.601889   -1.387110    1.555227
