15

O       0.132450    0.885152   -1.463300
C       0.003504    1.443261   -0.413177
O      -1.152706    2.067323   -0.102590
C      -1.313055    2.657861    1.192566
C      -0.585101    3.989129    1.313462
C       0.910804    3.886338    1.353178
C       1.655262    2.805641    1.089165
C       1.187552    1.491109    0.591589
O       1.791828    0.467932    0.816829
H      -2.389821    2.801074    1.298603
H      -0.984438    1.960662    1.973177
H      -0.896225    4.650598    0.492545
H      -0.921623    4.484979    2.233968
H       1.425513    4.784407    1.688494
H       2.727743    2.833230    1.261471
