22

C       0.353635    1.683225   -0.161569
C      -0.017045    0.221683    0.128311
C       0.219017   -0.651312   -1.121179
C       0.702687   -0.333468    1.332910
C       1.911938    0.083728    1.846775
N       2.216273   -0.705017    2.927032
C       1.215487   -1.622676    3.120314
C       0.258242   -1.426916    2.151309
C      -1.014016   -2.206586    2.000929
H       1.410679    1.775541   -0.437037
H      -0.234955    2.074273   -0.997952
H       0.176319    2.319853    0.710300
H      -1.094473    0.192060    0.344747
H       1.278907   -0.642928   -1.398480
H      -0.067613   -1.691830   -0.943132
H      -0.359966   -0.281420   -1.975100
H       2.573606    0.877721    1.540604
H       3.035125   -0.610241    3.500225
H       1.258482   -2.335087    3.929408
H      -1.895707   -1.553964    1.999869
H      -1.045207   -2.779797    1.066227
H      -1.135626   -2.918293    2.823088
