22

C      -0.422822    1.501708   -0.056033
C      -0.053746    0.020032   -0.001534
C       1.158306   -0.411760   -0.891747
C       1.554951    0.390359   -2.120289
C       2.076387   -0.393863    0.385393
C       2.873757    0.812426    0.542336
N       3.502170    1.776482    0.666165
C       0.764977   -0.430840    1.253217
C       0.697413    0.348763    2.556173
H       0.436893    2.157901    0.107452
H      -0.852603    1.755627   -1.030402
H      -1.171138    1.740176    0.706683
H      -0.957515   -0.573329   -0.172539
H       1.031808   -1.462666   -1.171159
H       1.742078    1.440544   -1.882131
H       2.467994   -0.013861   -2.570270
H       0.765353    0.348546   -2.878106
H       2.740662   -1.254889    0.499545
H       0.550893   -1.485993    1.451443
H       0.953559    1.402293    2.418012
H      -0.309553    0.296418    2.983703
H       1.392670   -0.066029    3.293796
