13

O       0.498224    1.329463    0.333203
C       0.230935    0.030326    0.123224
N       0.316441   -0.453889   -1.102525
C       0.037352   -1.760638   -1.250350
C       0.134146   -2.305305   -2.632862
O      -0.086266   -3.456257   -2.921134
C      -0.322294   -2.560810   -0.170979
N      -0.406889   -2.062033    1.070049
C      -0.132977   -0.775388    1.221083
H       0.725764    1.713241   -0.525673
H       0.431667   -1.545361   -3.385399
H      -0.542596   -3.612122   -0.316119
H      -0.193922   -0.345564    2.216440
