20

C      -0.257848    1.547887    0.074877
C       0.074106    0.067746   -0.033678
O       1.072763   -0.120602   -1.071742
C       2.127765   -0.756326   -0.486229
C       3.276893   -1.036743   -1.391369
N       2.046025   -1.048100    0.749355
C       0.750218   -0.583176    1.190328
C       0.615997   -0.084451    2.605977
C       0.003805   -1.405866    2.205132
H       0.612637    2.117215    0.413101
H      -0.577124    1.936437   -0.896169
H      -1.073219    1.706017    0.787709
H      -0.814954   -0.494163   -0.344389
H       2.958599   -1.673033   -2.223449
H       3.657435   -0.105391   -1.822763
H       4.070237   -1.533701   -0.834061
H       1.515245   -0.103669    3.210595
H      -0.046564    0.751375    2.802622
H      -1.077062   -1.461243    2.113204
H       0.481607   -2.316737    2.546668
