21

C      -0.049695    1.523809   -0.033467
C      -0.036767    0.000340   -0.030612
C      -1.279073   -0.714507    0.555702
O      -0.462710   -1.527687    1.422817
C       0.696625   -0.689897    1.150753
C       1.963234   -1.423741    0.859124
C       2.561484   -1.348483   -0.329937
C       1.949943   -0.626418   -1.504150
C       0.418287   -0.585637   -1.377980
H       0.932040    1.931638   -0.299647
H      -0.773289    1.906732   -0.762368
H      -0.318802    1.923783    0.949611
H      -1.945984   -0.052408    1.127087
H      -1.880101   -1.320462   -0.132609
H       0.854701   -0.001317    1.996982
H       2.410230   -1.983521    1.676830
H       3.520489   -1.837118   -0.485127
H       2.363626    0.389331   -1.587332
H       2.231458   -1.131941   -2.435036
H       0.052639   -1.614908   -1.461913
H      -0.024027   -0.017365   -2.204510
