20

C      -0.069804    1.546659   -0.058611
C       1.323441    0.991087    0.070718
C       0.145693    0.050696   -0.009077
C      -0.274310   -0.715144    1.207330
C      -1.518167   -1.605730    1.198004
C      -0.715529   -2.724228    0.463591
C      -1.053615   -3.802690    1.495728
C      -0.854819   -2.505361    2.282241
N       0.360967   -2.101215    1.402835
H      -0.510486    2.022741    0.811565
H      -0.366569    1.989846   -1.002603
H       1.987265    1.053042   -0.784107
H       1.823583    1.086880    1.028744
H       0.020899   -0.475895   -0.950959
H      -0.145540   -0.096917    2.106769
H      -2.578699   -1.352265    1.086070
H      -0.528942   -2.829022   -0.605810
H      -2.064871   -4.216440    1.467831
H      -0.299242   -4.579526    1.646284
H      -0.830600   -2.331810    3.359926
