25

C       0.334738    1.577804    0.216824
C       0.353103    0.051904    0.062066
C       0.695998   -0.477240   -1.357688
C      -0.411661   -0.101296   -2.355427
C       2.062586    0.033149   -1.790941
C       3.020873   -0.881780   -1.660914
C       2.475590   -2.190200   -1.143438
C       0.949077   -2.029927   -1.355982
C       0.087102   -2.878763   -0.421348
H       1.309630    2.017042   -0.016345
H      -0.409277    2.049542   -0.432484
H       0.088403    1.853448    1.247125
H       1.081873   -0.358349    0.771702
H      -0.624919   -0.346810    0.359204
H      -0.555807    0.981781   -2.418400
H      -0.166184   -0.458532   -3.360704
H      -1.371266   -0.544864   -2.064687
H       2.215656    1.052565   -2.129954
H       4.073387   -0.721404   -1.869416
H       2.875726   -3.065594   -1.668382
H       2.727870   -2.330864   -0.081305
H       0.746206   -2.359008   -2.383469
H       0.273505   -2.649710    0.632632
H      -0.982039   -2.734386   -0.611968
H       0.303088   -3.942737   -0.567306
