16

C      -0.149066    1.602572    0.011177
C      -0.045306    0.086263    0.006684
C       1.159776   -0.590563   -0.687775
C       2.112023   -0.361581    0.530969
O       2.530925   -1.747918    0.619942
C       1.123773   -1.820856    0.269775
C       0.694832   -0.610926    1.179794
C       0.362311   -0.636614    2.575795
N       0.080832   -0.644311    3.697920
H       0.812523    2.075431    0.236307
H      -0.481908    1.969741   -0.965015
H      -0.872557    1.942412    0.758987
H      -1.009687   -0.376870   -0.227497
H       1.448966   -0.600194   -1.736957
H       2.837859    0.420873    0.742989
H       0.648138   -2.794402    0.163153
