17

N       0.016912    1.384156    0.013061
C       0.003820   -0.009203    0.002587
C      -1.060584   -0.885582    0.139487
C      -0.462552   -2.171751    0.137660
N       0.856414   -2.108552    0.004405
N       1.118193   -0.776007   -0.067610
N      -2.398971   -0.431215    0.234571
C      -3.469658   -1.296782   -0.268137
C      -3.295508   -1.090479    1.193160
H       0.495659    1.789327   -0.783827
H      -0.941952    1.716463    0.031318
H      -0.938877   -3.138942    0.215995
H       2.072804   -0.466001   -0.123279
H      -4.267110   -0.787643   -0.802678
H      -3.187006   -2.261578   -0.681445
H      -2.887638   -1.912862    1.775418
H      -3.964198   -0.429289    1.737516
