13

N       0.029307    1.313827    0.151739
C      -0.053699   -0.047097    0.050816
N      -1.139265   -0.775737    0.021775
C      -0.601039   -2.038584    0.010124
C       0.752376   -2.036762    0.020939
O       1.148190   -0.715135    0.049129
C       1.198000   -3.383902   -0.021165
C       0.028104   -4.099740   -0.049009
O      -1.093635   -3.288821   -0.032155
H       0.861642    1.722416   -0.246973
H      -0.825337    1.786297   -0.101993
H       2.194081   -3.794514   -0.025751
H      -0.175302   -5.156155   -0.075325
