18

C      -0.120581    1.546094    0.032086
N       0.090691    0.099786    0.028317
C       0.646539   -0.556948   -1.141929
C       2.219197   -0.618096   -1.014290
C       2.562946    0.008708    0.316933
O       2.875108    1.383395    0.321150
C       1.172265   -0.521790    0.829072
C       1.316307   -1.612516   -0.331837
O       1.363412   -2.977413   -0.354037
H       0.740601    2.132590   -0.305167
H      -0.981597    1.767960   -0.608513
H      -0.379729    1.859796    1.049223
H       0.153594   -0.605648   -2.105039
H       2.857087   -0.781252   -1.872764
H       3.356343   -0.578485    0.800948
H       3.111028    1.639146    1.218616
H       0.981881   -0.673221    1.891749
H       0.476375   -3.313062   -0.178282
