20

C      -0.527449    1.499491    0.194694
C      -0.178371    0.020812    0.211825
O      -1.340260   -0.713622   -0.126796
C      -1.155482   -2.113352   -0.207735
C      -1.190315   -2.787460    1.193629
N      -2.589018   -3.125030    1.355325
C      -3.329353   -3.128992    0.203221
O      -4.496143   -3.436144    0.105795
C      -2.379073   -2.699721   -0.918898
H       0.351508    2.101091    0.444350
H      -0.884589    1.796690   -0.795138
H      -1.315325    1.715838    0.921534
H       0.625873   -0.198218   -0.510681
H       0.196596   -0.269286    1.206839
H      -0.211566   -2.335927   -0.723646
H      -0.543493   -3.676627    1.218599
H      -0.846331   -2.099158    1.971914
H      -2.991508   -3.447378    2.220387
H      -2.849706   -1.972320   -1.580740
H      -2.119801   -3.584918   -1.508814
