21

C      -0.080245    1.600779    0.062582
C       0.078985    0.081981   -0.072161
C       0.720595   -0.553429    1.155394
C      -0.055736   -0.577514    2.502960
C       0.536750   -1.985128    2.777777
C       0.885998   -2.109122    1.264304
C      -0.116627   -2.946491    0.472859
H       0.890265    2.089312    0.205409
H      -0.543734    2.034804   -0.828935
H      -0.708112    1.858380    0.922455
H      -0.903981   -0.370210   -0.253608
H       0.687019   -0.143709   -0.958789
H       1.701771   -0.089591    1.319313
H       0.156464    0.212270    3.227798
H      -1.138834   -0.613093    2.344697
H       1.430456   -1.939073    3.406403
H      -0.136296   -2.742360    3.190335
H       1.897528   -2.469347    1.050170
H      -1.151180   -2.652700    0.682610
H       0.041459   -2.856528   -0.607150
H      -0.019037   -4.005536    0.736208
