22

C      -1.509782   -0.657905    2.577374
O      -1.024261   -1.725731    1.795976
C       0.136720   -1.523862    1.027673
C       0.682832   -0.147048    0.724702
C       1.419855   -1.067554    1.679526
C       0.266207   -2.564228   -0.053308
C      -0.587878   -3.784425   -0.086447
N      -0.705429   -2.769666   -1.129189
C      -1.923981   -1.970455   -1.177462
H      -0.765094   -0.284915    3.294732
H      -1.858830    0.182227    1.961991
H      -2.357770   -1.053869    3.141068
H       1.094319    0.021084   -0.264666
H       0.198408    0.722181    1.152701
H       1.386025   -0.812500    2.733038
H       2.350911   -1.525470    1.364329
H       1.293861   -2.649447   -0.404148
H      -0.172274   -4.741345   -0.393885
H      -1.374831   -3.839277    0.661389
H      -2.381668   -1.785814   -0.197583
H      -1.701659   -1.005932   -1.646227
H      -2.651089   -2.489056   -1.811132
