14

C      -0.037337    1.573508    0.094196
C       0.017058    0.088895   -0.015544
C       0.055382   -0.735482   -1.106233
O       0.052868   -0.381865   -2.402676
N       0.099316   -2.041976   -0.707140
N       0.091229   -2.097747    0.583482
N       0.041172   -0.811120    1.036721
C       0.019735   -0.520236    2.415830
O       0.042726   -1.341372    3.283494
H       0.829709    1.983987    0.623690
H      -0.044227    1.996867   -0.912375
H      -0.940342    1.920221    0.608983
H       0.086353   -1.196272   -2.920700
H      -0.020742    0.569180    2.586952
