16

N       0.019118    1.360171    0.187237
C      -0.055389    0.016867    0.074070
C      -1.158524   -0.782834    0.045907
C      -0.754282   -2.153353   -0.162748
O      -1.397190   -3.127581   -0.514742
C       0.771204   -2.234268    0.036443
O       1.359233   -3.038793   -0.963744
C       1.247673   -0.766248   -0.055788
O       1.865831   -0.475907   -1.291626
H       0.874301    1.806931   -0.105028
H      -0.816854    1.913133    0.082980
H      -2.189334   -0.452764    0.048536
H       0.982662   -2.644346    1.033837
H       0.636472   -3.602924   -1.283182
H       1.932853   -0.498368    0.761114
H       1.918924   -1.330926   -1.749115
