16

N       0.171296    1.347120    0.457820
C      -0.011936   -0.017799    0.016845
C      -1.482039   -0.441455   -0.131274
O      -2.231703    0.660945   -0.621077
C      -1.449854   -1.508578   -1.240579
O      -2.349308   -2.246086   -1.563244
N      -0.226894   -1.387940   -1.876664
C       0.607999   -0.409170   -1.332333
N       1.684129    0.083077   -1.780510
H       1.131999    1.616508    0.262006
H      -0.422273    1.950975   -0.103193
H       0.446191   -0.693076    0.754166
H      -1.913534   -0.842559    0.791785
H      -3.113871    0.339569   -0.839588
H      -0.028829   -1.895061   -2.728478
H       1.955122   -0.310107   -2.682920
