20

C       0.111592    1.265942   -0.112527
C       1.315597    0.391253   -0.175322
N      -0.011362   -0.183479    0.019763
C      -0.306008   -0.687451    1.329276
C      -1.644082   -1.354135    1.606373
C      -2.459561   -1.840273    0.416601
C      -1.476287   -2.733827   -0.377232
O      -0.393554   -3.064704    0.502504
C      -0.383382   -2.178090    1.580292
H      -0.020367    1.870195    0.783432
H      -0.307319    1.696411   -1.017688
H       1.791199    0.170410   -1.126461
H       1.990424    0.409780    0.678615
H       0.093062   -0.107334    2.168768
H      -2.164347   -1.114519    2.526578
H      -3.315791   -2.414422    0.784541
H      -2.842120   -1.028223   -0.207742
H      -1.927807   -3.672976   -0.714198
H      -1.085127   -2.191967   -1.242104
H       0.087134   -2.606601    2.458549
