18

C      -0.046484    1.554133    0.043391
C      -0.014042    0.022335    0.031109
C       0.732650   -0.560638    1.235328
N      -1.379027   -0.511441   -0.023605
N      -2.270449   -0.278297    0.978532
N      -3.384083   -0.867175    0.659250
C      -3.242896   -1.488577   -0.544457
C      -1.957811   -1.262133   -0.984810
O      -1.250291   -1.614095   -2.079316
H       0.974111    1.947617    0.045322
H      -0.564775    1.941589   -0.838015
H      -0.564430    1.915991    0.934843
H       0.461492   -0.322587   -0.891693
H       0.240248   -0.267884    2.165748
H       0.759389   -1.652721    1.187867
H       1.761560   -0.189722    1.249857
H      -4.043465   -2.042201   -1.007228
H      -1.811209   -2.144001   -2.654423
