17

C      -0.200599    1.386213    0.105303
C       0.321524   -0.044517    0.055877
N       0.501063   -0.475125   -1.339054
C       0.806663   -1.798124   -1.578275
C       1.709615   -2.424951   -2.352095
N       1.398451   -3.797365   -2.267028
C       0.349334   -3.999999   -1.415682
O      -0.188192   -5.011802   -1.055584
O      -0.027581   -2.725605   -0.992953
H       0.510242    2.085932   -0.349883
H      -1.149846    1.470226   -0.430830
H      -0.354243    1.700034    1.141536
H       1.258695   -0.130091    0.629251
H      -0.397750   -0.727227    0.514557
H       1.111974    0.142181   -1.858784
H       2.515918   -2.044564   -2.952380
H       1.872654   -4.556320   -2.721294
