16

C      -0.209196    1.514993    0.005541
C       0.035156    0.000041    0.016919
C       0.786787   -0.442377   -1.237702
O       1.167735   -1.824383   -1.210281
C       1.784498   -2.301389   -0.094993
O       2.329525   -3.373973   -0.128468
C       1.674421   -1.478750    1.132540
C       0.828497   -0.449670    1.214925
H       0.736207    2.067690   -0.011683
H      -0.791293    1.812137   -0.872266
H      -0.763663    1.825842    0.896046
H      -0.941834   -0.506556    0.040965
H       0.174268   -0.329323   -2.135224
H       1.689460    0.173120   -1.357756
H       2.254715   -1.837253    1.974287
H       0.687218    0.079795    2.154676
