17

O       0.044491    1.522633    1.050653
C      -0.053981    0.224037    0.510498
C       0.547269    0.035992   -0.921635
N       1.442481   -0.976411   -0.327522
C       1.084092   -0.696386    0.972376
N       1.485320   -0.925910    2.150958
C      -1.455972   -0.305417    0.720912
C      -2.543052   -0.012624   -0.216161
O      -1.932371   -1.307180   -0.175983
H       0.535120    1.435341    1.878370
H      -0.120557   -0.366428   -1.685123
H       1.052054    0.942368   -1.267757
H       2.333591   -1.301346   -0.672652
H       2.336067   -1.489097    2.179033
H      -1.703705   -0.475607    1.768873
H      -3.568485    0.031573    0.145864
H      -2.340133    0.572421   -1.112016
