12

N      -0.061649    1.293607    0.357839
C      -0.004963    0.098166   -0.040514
N      -1.127598   -0.693612   -0.163856
C      -1.195725   -2.021783   -0.590481
O      -2.254041   -2.607493   -0.654106
C       0.117889   -2.571864   -0.929658
C       1.202840   -1.802755   -0.809219
O       1.187156   -0.514363   -0.385471
H       0.864116    1.713952    0.383381
H      -2.001294   -0.251188    0.086823
H       0.181674   -3.594069   -1.272074
H       2.214027   -2.119008   -1.035221
