18

C      -0.035030    1.483374   -0.312731
C      -0.150104   -0.030141   -0.204802
C      -0.168944   -0.694018    1.146418
C      -1.423573   -0.652576    0.308411
C       1.372244    1.974557   -0.213771
C       2.261084    2.469386   -1.119613
C       3.425619    2.715041   -0.345920
N       3.260237    2.400459    0.914636
O       1.951689    1.927702    1.001023
H      -0.451949    1.827233   -1.265413
H      -0.629928    1.948470    0.482745
H       0.365240   -0.567138   -0.996281
H       0.345646   -1.641307    1.260482
H      -0.117664   -0.055445    2.021431
H      -2.221719    0.012694    0.621840
H      -1.769162   -1.570630   -0.153396
H       2.107527    2.635312   -2.172721
H       4.378845    3.113717   -0.664045
