18

C      -0.139071    1.571441   -0.082952
C      -0.025275    0.037151   -0.059160
C       0.844019   -0.574120   -1.201256
C       1.976431   -0.916131   -0.182372
C       1.032209   -0.473984    0.937953
O       1.038389   -0.560433    2.136796
C      -1.419036   -0.580990    0.111708
N      -1.858916   -0.585596    1.401284
O      -2.068716   -0.980271   -0.833938
H       0.843024    2.033977   -0.224217
H      -0.785219    1.878633   -0.910755
H      -0.566306    1.947533    0.850283
H       0.371828   -1.446054   -1.653708
H       1.121734    0.127876   -1.988476
H       2.302506   -1.957832   -0.119868
H       2.867307   -0.284310   -0.254687
H      -1.195318   -0.467625    2.154329
H      -2.731541   -1.052371    1.592076
