16

O       0.669398    0.600061   -0.981316
C       0.131961   -0.331993   -0.090047
C       0.177677   -0.066678    1.447405
C      -1.262183   -0.669822    1.570034
C      -2.220511    0.007696    2.422410
N      -2.986945    0.574825    3.077054
C      -1.389620   -0.482936    0.038702
C      -2.438618    0.210668   -0.708111
O      -2.237544   -1.212274   -0.803123
H       0.298589    1.465902   -0.777335
H       0.590921   -1.293315   -0.341638
H       0.962365   -0.555617    2.023830
H       0.177940    1.003640    1.668135
H      -1.231128   -1.734271    1.819961
H      -3.346869    0.520967   -0.195486
H      -2.173307    0.770741   -1.602933
