16

C      -0.043999    1.396019   -0.008763
O       0.008300   -0.026866    0.016097
C       0.651582   -0.593095    1.060077
C       0.717429   -1.992607    1.107974
N       1.326618   -2.624971    2.100259
C       1.890886   -1.876274    3.059939
N       2.584168   -2.546519    4.059499
C       1.817544   -0.480260    3.003100
N       1.196767    0.154403    2.007694
H       0.960503    1.829712   -0.040264
H      -0.594004    1.653784   -0.914980
H      -0.561209    1.789857    0.871904
H       0.258919   -2.590488    0.325574
H       2.325991   -3.520633    4.128591
H       2.619126   -2.083642    4.955315
H       2.269402    0.136960    3.776335
