21

C       0.624305   -0.063960    1.374701
C      -0.008580   -0.061216   -0.022582
C      -1.379841   -0.723911   -0.091755
C      -1.751932   -1.443615   -1.369649
C      -1.429778   -2.230655   -0.122382
C      -2.478743    0.059780    0.634938
O      -2.610258    1.375772    0.095545
C      -3.777209   -0.625044    0.663193
C      -4.855581   -1.157286    0.665029
H       1.630295    0.365699    1.343445
H       0.043102    0.528310    2.088671
H       0.704923   -1.081343    1.771868
H      -0.095992    0.968870   -0.384640
H       0.658890   -0.583107   -0.718226
H      -2.789243   -1.428489   -1.687058
H      -1.031812   -1.438279   -2.180869
H      -0.482699   -2.758585   -0.078637
H      -2.250313   -2.733671    0.375523
H      -2.163509    0.227199    1.671706
H      -2.892715    1.275499   -0.821232
H      -5.809898   -1.623631    0.681018
