23

C      -0.215912    1.483358    0.031321
C       0.033245   -0.024204   -0.047217
O       0.802034   -0.361329   -1.203529
C       0.769311   -0.610349    1.170055
C       0.698991   -2.144636    1.156273
C       2.225442   -0.131176    1.257640
C       2.871041   -0.348644    2.620676
C       4.380112   -0.179187    2.674547
O       2.228766   -0.625810    3.608932
H       0.721098    2.047251    0.053458
H      -0.784541    1.822356   -0.842683
H      -0.798356    1.738118    0.922662
H      -0.948123   -0.525463   -0.098795
H       0.335150   -0.034887   -1.978670
H       0.251217   -0.255091    2.067954
H       1.200981   -2.564193    2.031310
H      -0.341061   -2.487294    1.172944
H       1.168490   -2.542791    0.251544
H       2.839929   -0.601788    0.481666
H       2.303813    0.947561    1.061125
H       4.692732    0.741502    2.170608
H       4.719104   -0.174928    3.711233
H       4.859231   -1.009405    2.141946
