23

C      -0.318067    1.460385    0.380681
C       0.339599    0.130912   -0.006049
C       0.858181   -0.634373    1.194237
C      -0.074299   -1.493043    2.035273
C       1.005606   -2.128994    1.187169
O       0.587167   -2.744391   -0.008958
C       2.206724   -2.796815    1.785222
C       2.565825   -2.708162    3.244040
C       2.046029   -4.006909    2.682129
H       0.387742    2.117300    0.901542
H      -0.679185    1.995229   -0.503534
H      -1.170956    1.298313    1.048422
H      -0.370066   -0.497993   -0.551291
H       1.170165    0.320874   -0.698272
H       1.627982   -0.113936    1.760730
H       0.013504   -1.469165    3.115900
H      -1.087458   -1.616743    1.666185
H       0.356519   -3.654997    0.206685
H       3.046143   -2.835327    1.095202
H       3.617839   -2.641429    3.498165
H       1.917086   -2.151003    3.910556
H       1.036830   -4.295530    2.958723
H       2.734032   -4.836651    2.565099
