13

N       0.015031    1.419947    0.198644
C      -0.022710    0.031411    0.058283
C      -1.187122   -0.735471    0.048260
N      -1.199197   -2.069367   -0.020465
C      -0.014409   -2.655287   -0.079728
O      -0.011576   -3.997288   -0.142949
N       1.177228   -2.042220   -0.087042
C       1.143208   -0.737163   -0.019651
F       2.311376   -0.096127   -0.035732
H       0.869395    1.834631   -0.146188
H      -0.796796    1.894626   -0.171253
H      -2.157417   -0.244712    0.097940
H       0.914003   -4.270369   -0.181167
