14

O      -0.006084   -0.051268    0.001890
C       0.034987    1.143199   -0.132191
C       1.278506    1.939737   -0.066870
C       1.344134    3.387844    0.327973
C       1.817310    3.017841   -1.056427
C       3.114231    2.206465   -0.949287
O       2.541016    1.320828    0.046074
C       1.254306    3.542544   -2.252114
N       0.808372    3.973830   -3.229531
H      -0.872012    1.760892   -0.313628
H       0.397603    3.917661    0.351998
H       2.069116    3.676088    1.083049
H       3.347091    1.656663   -1.864818
H       3.996530    2.738474   -0.580685
