18

C      -0.022740    1.550801    0.086934
C       1.515087    1.593144   -0.140291
C       1.436259    0.102755   -0.617187
C       2.421155   -0.916051   -0.145837
C       2.085185   -1.798379    0.793271
C       0.741154   -1.749034    1.473127
O       0.116992   -0.481425    1.373162
C       0.035252    0.009047    0.046969
H      -0.413838    1.977107    1.012461
H      -0.579930    1.956058   -0.761884
H       1.898607    2.323981   -0.855332
H       2.067553    1.686332    0.796717
H       1.342105    0.069308   -1.708891
H       3.408571   -0.933690   -0.601243
H       2.771173   -2.577577    1.114150
H       0.080614   -2.542209    1.076319
H       0.851576   -1.941464    2.546394
H      -0.747349   -0.526260   -0.510636
