14

C      -0.113807    1.663339    0.211150
C       0.010779    0.164981   -0.116352
C       0.752663   -0.640159    0.968435
C       2.137140   -0.206635    1.130368
N       3.229875    0.152640    1.242311
C      -1.362869   -0.430597   -0.364445
O      -1.805951   -1.395022    0.203696
H       0.875943    2.116645    0.304394
H      -0.656317    2.192447   -0.578103
H      -0.650645    1.815311    1.153383
H       0.556563    0.073710   -1.067280
H       0.231109   -0.540905    1.926560
H       0.732414   -1.705735    0.721167
H      -1.958726    0.109926   -1.134303
