21

C      -0.386296    1.277899   -0.660164
C       0.067058   -0.151711   -0.403973
C       1.533057   -0.569403   -0.797741
C       1.764276   -0.972029    0.658352
N       1.544626    0.258421    1.465750
C       0.382607   -0.568969    1.053790
C      -0.601625   -1.142458    2.003000
C      -0.372943   -1.224379    3.467435
N      -1.358314   -0.270533    2.932930
H       0.302797    1.985337   -0.191248
H      -0.420591    1.492013   -1.733947
H      -1.389323    1.452586   -0.255045
H      -0.644657   -0.863487   -0.835404
H       1.562336   -1.406838   -1.498113
H       2.181517    0.233385   -1.158413
H       2.387766   -1.768836    1.046699
H       1.771956    0.013563    2.429108
H      -1.232002   -1.910468    1.557532
H      -0.793976   -2.055469    4.026362
H       0.554999   -0.839936    3.883047
H      -0.943313    0.659306    2.916365
