14

N      -0.005598   -1.139839    0.046249
C       0.033438    0.014793    0.009725
C       0.059097    1.456236   -0.074544
C      -0.964423    2.180983   -0.954213
C      -0.269031    3.469669   -1.386839
O       0.071273    4.362208   -0.327876
C       1.097963    3.512131   -0.833182
C       1.309561    2.258266   -0.003433
O       0.439380    2.147333    1.116971
H      -1.198669    1.567462   -1.829792
H      -1.894280    2.371364   -0.411088
H      -0.549300    3.943136   -2.324486
H       1.942428    3.995204   -1.314636
H       2.293573    1.812232    0.102422
