19

C       0.524107    1.639622   -0.569957
C       0.216349    0.240503   -0.315335
C      -0.046455   -0.916011   -0.105320
C      -0.350374   -2.311810    0.146166
C       0.099079   -2.918607    1.506776
C      -1.385754   -3.188203    1.703390
C      -2.082830   -4.415316    2.189863
C      -2.239170   -3.084713    2.920316
O      -1.750529   -2.557345    0.473270
H       1.237858    2.031345    0.163130
H       0.957851    1.778951   -1.566210
H      -0.380370    2.255166   -0.512682
H      -0.057685   -2.924150   -0.716084
H       0.743884   -3.795832    1.432619
H       0.534545   -2.191843    2.193676
H      -2.929195   -4.764539    1.608038
H      -1.495082   -5.200104    2.655858
H      -1.757779   -2.958599    3.885008
H      -3.186529   -2.567261    2.813132
