15

C      -0.036584    1.584755    0.039275
C       0.016942    0.088587   -0.006050
C      -0.900214   -0.841134    0.783677
C       0.581950   -0.960975    0.956300
O       1.126087   -1.733009   -0.143925
C       0.702210   -0.747685   -1.046305
N       0.904773   -0.627648   -2.272382
C       1.334420   -0.837554    2.156600
N       1.929172   -0.719529    3.141934
H       0.935063    2.019390   -0.209528
H      -0.769335    1.957694   -0.683068
H      -0.330773    1.934934    1.032511
H      -1.435327   -0.353226    1.592469
H      -1.421428   -1.662003    0.301686
H       1.456868   -1.399977   -2.648074
