14

N      -0.098233   -1.157249   -0.117240
C      -0.034832   -0.005730   -0.034874
C      -0.005483    1.447288    0.020084
C       0.041628    2.087633    1.465083
N       1.482130    1.667888    1.471562
C       1.428406    2.113500    0.039839
C       1.024248    3.599430    0.129012
C       0.092726    3.582065    1.086469
H      -0.728060    1.873489   -0.675255
H      -0.603142    1.745243    2.272415
H       2.056865    2.289350    2.042067
H       2.223768    1.797971   -0.632907
H       1.395266    4.409118   -0.482074
H      -0.522467    4.373366    1.489028
