19

C       0.017967    1.290694    0.432752
C      -0.012278   -0.120471    0.074765
C      -0.030559   -1.287081   -0.222920
C      -0.085768   -2.703058   -0.579449
C      -1.411056   -3.359882   -0.205586
C      -1.473249   -4.815136    0.113302
N      -1.731463   -3.815454    1.143293
C      -0.759606   -3.668993    2.216415
H       0.883629    1.524280    1.062576
H       0.075382    1.927600   -0.456992
H      -0.881526    1.579273    0.987887
H       0.051499   -2.815369   -1.663547
H       0.751466   -3.239260   -0.119066
H      -2.262406   -2.904333   -0.709065
H      -2.319803   -5.424146   -0.194037
H      -0.523009   -5.349719    0.151217
H       0.275176   -3.927127    1.940366
H      -0.769623   -2.635256    2.573971
H      -1.054152   -4.323078    3.043333
