17

O       0.160784    1.312332    0.015409
C       0.067008   -0.068858    0.044256
C      -0.496711   -0.717903    1.267214
O      -0.942662    0.154089    2.273616
C      -1.335537   -0.704654    0.013521
C      -2.645619    0.029104   -0.296766
C      -3.040016   -1.142297   -1.259343
C      -1.744970   -1.866741   -0.835418
O      -1.255393   -2.936773   -1.074135
H      -0.264589    1.627973    0.826151
H       0.848301   -0.559123   -0.527561
H      -0.122519   -1.684536    1.600120
H      -0.230242    0.251625    2.916117
H      -3.311151    0.143743    0.560903
H      -2.508212    1.000241   -0.776750
H      -3.957002   -1.683294   -1.010937
H      -3.066764   -0.882900   -2.321489
