23

C      -0.038316    1.526376    0.035157
C       0.021738   -0.005900    0.016008
C       0.708909   -0.528386   -1.251494
C       0.716523   -0.537136    1.268016
O       0.032577   -0.059946    2.404259
C       0.633298   -0.503554    3.612642
C       0.699781   -2.031908    3.645879
C       1.364290   -2.513364    2.354366
O       0.718542   -1.945822    1.223537
H       0.969446    1.958912    0.010646
H      -0.576559    1.897203   -0.842687
H      -0.541660    1.891897    0.932095
H      -1.001311   -0.401155    0.053155
H       1.741161   -0.163128   -1.317225
H       0.734553   -1.619511   -1.267153
H       0.179240   -0.178929   -2.143216
H       1.768486   -0.182828    1.313364
H       1.648903   -0.080389    3.702702
H       0.026773   -0.101466    4.428472
H       1.261372   -2.375997    4.521685
H      -0.315028   -2.438666    3.706046
H       2.432467   -2.234741    2.353940
H       1.298675   -3.598501    2.239071
