19

C       0.019647    1.588065   -0.277052
C       0.106714    0.099906   -0.030437
C       1.352973   -0.715998   -0.083661
O       2.484502   -0.018923    0.466914
C       1.898907   -0.096486    1.788362
C       2.041589    1.133694    2.645548
C       3.141189    2.085513    2.439935
O       1.790347    2.428465    2.112293
C       0.578459   -0.630905    1.221892
H       0.919825    2.099300    0.058234
H      -0.121500    1.778715   -1.346955
H      -0.831777    2.023833    0.256286
H      -0.724118   -0.464642   -0.455966
H       1.565615   -1.539562   -0.756024
H       2.390593   -0.909707    2.347690
H       1.668255    0.988740    3.661933
H       3.565531    2.617572    3.289603
H       3.796931    1.947695    1.583536
H      -0.027400   -1.379079    1.715718
