17

C      -0.029495    1.587056   -0.001416
C       0.022986    0.080091    0.054622
C      -1.294957   -0.736488    0.272638
C      -0.613016   -1.563312    1.402441
C       0.714611   -0.792053    1.167791
N       1.572548   -1.338037    0.115005
C       0.956737   -0.666915   -0.925846
O       1.098242   -0.709737   -2.118926
H       0.972514    2.025215    0.051453
H      -0.483535    1.911506   -0.944123
H      -0.627116    1.997850    0.819368
H      -2.113549   -0.110008    0.635104
H      -1.647622   -1.289534   -0.600474
H      -1.044504   -1.376779    2.388892
H      -0.550212   -2.643323    1.250425
H       1.248311   -0.378932    2.025139
H       2.089592   -2.207256    0.087267
