17

C      -0.074258    1.451063    0.103992
C      -0.029925   -0.033790   -0.023390
C       0.041672   -0.778902   -1.139315
C       0.011554   -2.228944   -0.810966
O      -0.009299   -3.156391   -1.586698
C      -0.004255   -2.321946    0.703614
C       1.208641   -1.725582    1.418030
C      -0.048073   -0.912068    1.206161
O      -0.857105   -0.550118    2.280721
H       0.801500    1.824206    0.651168
H      -0.105656    1.943099   -0.870158
H      -0.956233    1.751462    0.681577
H       0.117979   -0.415927   -2.156443
H      -0.538744   -3.128074    1.187901
H       1.382733   -2.098469    2.422964
H       2.099331   -1.487748    0.845956
H      -0.349884    0.025183    2.863083
