21

C      -0.737174    1.355657    0.018003
C       0.046833    0.053490   -0.065340
C       1.464251    0.084535   -0.697338
C       1.927099   -0.944495    0.362335
O       3.221409   -0.853853    0.893638
C       0.668425   -0.578217    1.231815
C       0.888819    0.380692    2.375883
C       1.925758    0.205571    3.399890
O       2.071674    1.210632    2.378839
H      -0.152023    2.148114    0.496357
H      -1.004967    1.704800   -0.985200
H      -1.668898    1.235230    0.582868
H      -0.565939   -0.706146   -0.562384
H       1.571892   -0.180657   -1.751959
H       1.947668    1.052325   -0.524019
H       1.824226   -1.966741   -0.013738
H       3.303944    0.047328    1.235864
H       0.112813   -1.434690    1.630627
H      -0.002328    0.930160    2.683291
H       1.764452    0.596625    4.402576
H       2.617109   -0.628566    3.315284
