18

N       0.154417    1.447456   -0.049372
C       0.047697    0.020207    0.029637
C      -0.450366   -0.625188    1.317803
C      -0.923005    0.192351    2.397098
N      -1.295732    0.841258    3.279613
C      -1.271789   -0.718323    0.024439
N      -2.451793    0.083295   -0.039956
C      -3.324703   -0.117161   -1.194833
C      -3.732844   -0.590659    0.156992
H       0.211781    1.728196   -1.024234
H      -0.690158    1.872868    0.323683
H       0.888978   -0.492563   -0.427017
H       0.054821   -1.529062    1.641023
H      -1.311346   -1.712808   -0.429555
H      -3.757433    0.784100   -1.618614
H      -3.036893   -0.872667   -1.923760
H      -3.718724   -1.663908    0.335459
H      -4.464961   -0.039258    0.738361
