19

O       0.262511    1.323192    0.034761
C       0.070820   -0.070290   -0.136216
C      -1.404648   -0.477339   -0.092233
C      -1.628434   -2.010480   -0.186950
C      -2.460126   -2.344720    1.065825
O      -3.106397   -1.129774    1.432879
C      -2.165375   -0.085866    1.218497
C      -1.287510    0.093222    2.387066
C      -0.576652    0.249768    3.345778
H       0.143765    1.507457    0.973556
H       0.481525   -0.321616   -1.120003
H       0.635757   -0.646354    0.611268
H      -1.916698    0.028539   -0.914849
H      -2.171286   -2.266362   -1.099471
H      -0.682505   -2.560945   -0.199830
H      -3.239383   -3.091255    0.897119
H      -1.813698   -2.694055    1.884226
H      -2.742934    0.832664    1.079928
H       0.034621    0.383523    4.204632
