19

O       0.164901    1.375842   -0.095169
C       0.023807   -0.020266   -0.008527
C       0.608065   -0.578496    1.316793
O       0.126857    0.285479    2.381360
C      -1.095992   -0.511374    2.419946
C      -2.079349    0.004463    1.354430
C      -1.439347   -0.551378    0.058959
C      -1.194821   -2.023620    0.450125
C      -0.381811   -1.705127    1.708237
H       0.120355    1.691840    0.819231
H       0.533068   -0.456793   -0.875581
H       1.691698   -0.705777    1.345113
H      -1.485302   -0.601502    3.435350
H      -3.080318   -0.415607    1.504150
H      -2.158885    1.094397    1.376889
H      -2.014290   -0.373031   -0.850318
H      -2.115812   -2.576345    0.659575
H      -0.620243   -2.580569   -0.297138
H      -0.011002   -2.515216    2.332372
