18

C       0.113757    1.543055   -0.170093
C       0.036842    0.050174    0.051137
O       0.872853   -0.709752   -0.864248
C       1.426115   -1.490176    0.211168
C       2.921139   -1.265286    0.407747
O       3.048220   -0.095557    1.232940
C       1.871083    0.198193    1.867463
N       1.749137    1.044900    2.796219
C       0.744250   -0.607942    1.272356
H       1.146567    1.896625   -0.122259
H      -0.294005    1.792685   -1.154611
H      -0.468204    2.069061    0.592773
H      -1.003365   -0.294544   -0.023725
H       1.153648   -2.547721    0.138655
H       3.391859   -2.113158    0.920470
H       3.434166   -1.080693   -0.539206
H       2.654074    1.461786    3.022800
H       0.101290   -1.044614    2.033223
