20

C      -0.242829    1.442144   -0.299522
O       0.101863    0.090957   -0.034126
C       0.635307   -0.585510   -1.133957
C       1.294451   -1.945426   -0.762733
C       1.503479   -2.267781    0.706808
N       0.158902   -2.660364   -1.402303
C      -0.376974   -1.425608   -2.002913
C      -1.847253   -1.197808   -1.707321
O      -2.484476   -0.266669   -2.131068
H       0.638745    2.015111   -0.624526
H      -1.022600    1.520659   -1.065685
H      -0.614096    1.863341    0.637268
H       1.269642    0.084335   -1.727447
H       2.240480   -2.065520   -1.309675
H       0.585699   -2.097615    1.272460
H       1.794579   -3.317244    0.820583
H       2.296125   -1.644502    1.133156
H       0.413600   -3.392130   -2.054992
H      -0.207228   -1.287946   -3.079196
H      -2.290639   -1.969689   -1.040200
