18

C      -0.025610    1.537182    0.130350
C       1.416459    2.054107    0.014997
C       2.175250    1.292133   -1.070363
C       1.390592    0.503924   -2.165760
O       2.574943   -0.355341   -2.361127
C       2.410101   -0.231744   -0.898026
C       0.888266   -0.482857   -1.065400
C      -0.068943    0.005455    0.020730
H      -0.498130    1.882376    1.055211
H      -0.610956    1.959281   -0.696286
H       1.415709    3.127025   -0.206584
H       1.948062    1.939468    0.969330
H       3.052348    1.812243   -1.461484
H       0.886366    0.867013   -3.062864
H       3.129567   -0.751625   -0.262022
H       0.665540   -1.479604   -1.452282
H       0.207815   -0.460669    0.976046
H      -1.089523   -0.328165   -0.196908
