12

O      -0.067655    1.304676    0.009746
C       1.238506    1.718760   -0.000382
N       2.141241    0.799397   -0.014091
C       1.392563   -0.378628   -0.013410
C       0.032160   -0.055546    0.001319
N      -0.979864   -0.889412    0.006367
C      -0.566792   -2.167145   -0.004600
N       0.691179   -2.624441   -0.019098
C       1.689517   -1.734464   -0.023694
H       1.387064    2.788187    0.004076
H      -1.350578   -2.918747   -0.001282
H       2.708354   -2.111258   -0.035481
