18

O       0.150260    1.379132    0.360983
C       0.121821   -0.005596    0.065795
C      -1.275198   -0.535944   -0.078065
C      -2.172268   -0.904065    1.066913
C      -1.727194   -1.961926    0.069258
C      -2.642966   -2.229596   -1.108531
C      -2.791964   -0.873464   -1.784242
N      -3.574777   -0.610007   -2.736113
O      -1.941446    0.035713   -1.201237
H      -0.321587    1.827774   -0.349201
H       0.688225   -0.231961   -0.851297
H       0.617014   -0.513665    0.899088
H      -1.729535   -0.936828    2.056290
H      -3.201431   -0.560018    1.039094
H      -1.043463   -2.735856    0.396814
H      -2.193439   -2.936208   -1.813506
H      -3.625692   -2.623636   -0.837593
H      -3.493082    0.369588   -3.012786
