19

C       0.093665    1.569576   -0.104880
C      -0.025324    0.075072    0.068727
C      -1.392554   -0.579434   -0.102299
C      -1.337293   -1.839794    0.793741
O      -0.201996   -1.697106    1.663382
C       0.627541   -0.699143    1.167658
C       1.192546   -0.813731   -0.254934
C       1.114703   -2.003180   -1.044686
C       1.067175   -2.992185   -1.729915
H       1.097346    1.922448    0.151948
H      -0.105715    1.867176   -1.140665
H      -0.621202    2.096017    0.538128
H      -2.160609    0.121398    0.240875
H      -1.615299   -0.839192   -1.141291
H      -2.224989   -1.954185    1.423584
H      -1.215909   -2.744213    0.191704
H       1.250147   -0.254915    1.937131
H       2.108792   -0.245192   -0.400134
H       1.030816   -3.873433   -2.320751
