16

O      -0.029848    1.433872   -0.063897
C       1.258815    0.828521   -0.009912
C       0.039637    0.003018    0.002326
C      -0.034026   -0.706332   -1.378331
C      -0.847095    0.154588   -2.323545
C      -0.029571    0.995858   -2.954586
C       1.387659    0.621025   -2.685693
C       1.983199    0.536021   -1.298288
N       1.372035   -0.654209   -1.939776
H       1.847871    1.061648    0.873941
H      -0.399414   -0.446146    0.889605
H      -0.363406   -1.742406   -1.273074
H      -1.928836    0.198464   -2.302890
H      -0.311866    1.808891   -3.610448
H       2.097982    0.684417   -3.508898
H       3.068517    0.514137   -1.225141
