17

C      -0.016451    1.491766    0.063315
C      -0.010277   -0.003550    0.005219
C       0.017086   -0.776264   -1.087018
C      -0.013005   -2.254655   -0.761362
C       0.054710   -2.282858    0.765928
C       1.259271   -1.676444    1.436763
C       0.006656   -0.842166    1.246435
H       0.859319    1.872952    0.603763
H      -0.021463    1.934507   -0.936415
H      -0.898159    1.862486    0.601877
H       0.074870   -0.405100   -2.104927
H      -0.935022   -2.726693   -1.128660
H       0.816883   -2.803013   -1.226911
H      -0.477738   -3.061999    1.298432
H       1.486807   -2.021113    2.440530
H       2.127979   -1.426493    0.835171
H      -0.557372   -0.530959    2.120012
