22

C       0.029133    1.595438    0.086122
C       0.029466    0.067136    0.002445
C      -1.382392   -0.529533    0.030893
C      -1.403296   -2.063481    0.001606
N      -0.747391   -2.585913    1.196162
C      -2.867886   -2.595694   -0.201432
N      -3.548896   -2.241234   -1.446830
C      -2.858972   -4.064018   -0.075342
N      -2.794429   -5.214181    0.019485
H       1.047968    1.993667    0.058143
H      -0.525123    2.043328   -0.746774
H      -0.436635    1.942087    1.015583
H       0.532034   -0.250669   -0.920621
H       0.608664   -0.359215    0.826798
H      -1.908246   -0.189165    0.936407
H      -1.953670   -0.138817   -0.820006
H      -0.821727   -2.408928   -0.865071
H      -1.271718   -2.331259    2.029505
H      -0.705634   -3.600285    1.171890
H      -3.477664   -2.208587    0.626829
H      -3.703450   -1.240203   -1.484634
H      -2.975139   -2.491942   -2.246966
