18

C       0.134324    1.450825    0.038757
C       0.028405   -0.077167    0.003054
C       0.481326   -0.641623   -1.327633
O       1.926946   -0.413032   -1.554150
C       2.180283   -1.756986   -1.664707
N       3.246136   -2.396305   -1.824852
C       0.726871   -2.162728   -1.502626
C       0.413486   -3.165618   -0.414002
O      -0.464536   -3.046120    0.400234
H       1.164237    1.774033   -0.137965
H      -0.498968    1.911384   -0.727643
H      -0.182067    1.839105    1.010695
H       0.628587   -0.518559    0.805287
H      -1.002082   -0.403535    0.176711
H      -0.076864   -0.194110   -2.156072
H       4.054615   -1.774996   -1.881755
H       0.322470   -2.569238   -2.437675
H       1.069805   -4.061394   -0.442310
