17

C       0.241496    1.626825   -0.197183
C      -0.029580    0.133250    0.045284
C       0.430045   -0.673454   -1.165526
O      -0.276595   -1.382155   -1.832848
C       0.684936   -0.404535    1.259145
C       0.397104   -1.574934    1.941310
N       1.309798   -1.677431    2.933937
N       2.187761   -0.658554    2.957803
C       1.814319    0.112801    1.940829
H       1.298569    1.807292   -0.420079
H      -0.346834    1.994495   -1.042426
H      -0.020145    2.212505    0.688258
H      -1.106598   -0.037856    0.140214
H       1.518574   -0.564275   -1.383737
H      -0.373079   -2.315648    1.792730
H       1.387187   -2.403060    3.626533
H       2.361994    1.020643    1.736521
