20

C      -0.067876    1.573369   -0.043689
C      -0.018682    0.043595   -0.007964
O       0.796664   -0.419813    1.064270
C      -1.410372   -0.569790    0.147862
C      -1.426923   -2.094234    0.268362
C      -1.450435   -2.049557    1.743834
C      -1.996921   -0.578481    1.593637
C      -3.360504   -1.250969    1.374510
N      -2.661200   -2.533278    1.023029
H       0.939363    1.989054   -0.165094
H      -0.674068    1.928564   -0.883134
H      -0.489822    1.970613    0.884377
H       0.394303   -0.311232   -0.968892
H       1.654329    0.009345    0.990248
H      -2.059533   -0.131509   -0.621856
H      -0.987101   -2.831298   -0.391390
H      -0.923703   -2.595946    2.513110
H      -1.846039    0.261707    2.268061
H      -3.924950   -1.412828    2.296658
H      -4.024073   -0.846022    0.599976
