12

C      -0.045140    1.402155    0.064190
O       0.010592   -0.029996   -0.011056
C       0.652668   -0.549499   -1.138232
C      -0.023549   -0.145474   -2.405202
N      -0.574184    0.200155   -3.358672
C       2.081041   -0.125814   -1.215424
N       3.176826    0.235436   -1.238116
C       0.599539   -2.025415   -1.019844
N       0.563267   -3.174867   -0.937194
H       0.961192    1.833122    0.101856
H      -0.600376    1.818908   -0.783100
H      -0.573318    1.615804    0.992640
