23

O       0.051903    1.391572   -0.100905
C       0.048546   -0.028922   -0.061082
C      -1.396141   -0.503100    0.023362
C      -2.242625   -0.042789   -1.191249
C      -3.459468   -0.957832   -1.402949
C      -3.958896   -1.547021   -0.049028
C      -2.824094   -2.602490   -0.212903
C      -2.970605   -2.391854   -1.744210
C      -1.473649   -2.033750    0.252436
H       0.961196    1.688652   -0.196452
H       0.520858   -0.452706   -0.963764
H       0.613495   -0.402557    0.809293
H      -1.822560   -0.020391    0.910567
H      -2.552953    0.994624   -1.034531
H      -1.632695   -0.045326   -2.104841
H      -4.196313   -0.498214   -2.066664
H      -3.961861   -0.906616    0.837489
H      -4.944457   -2.007835   -0.157145
H      -2.991986   -3.607034    0.184080
H      -3.769826   -3.008197   -2.165688
H      -2.072186   -2.491933   -2.362857
H      -0.668589   -2.548454   -0.290985
H      -1.311363   -2.245741    1.316139
