18

C      -0.030185    1.469394    0.076573
C       0.010517   -0.013568    0.015703
C       0.003526   -0.857867   -1.037345
C      -0.045472   -0.570139   -2.415042
N      -0.085642   -0.348545   -3.553484
C       0.062486   -2.253370   -0.380640
C      -0.977004   -2.050347    0.770188
C       0.073538   -0.970593    1.211825
C       1.155454   -1.989826    0.706566
H       0.852761    1.864582    0.594777
H      -0.071522    1.909427   -0.922778
H      -0.903130    1.814319    0.645188
H       0.067829   -3.125417   -1.031399
H      -1.975959   -1.704524    0.495672
H      -1.032234   -2.898583    1.458581
H       0.091087   -0.538215    2.211585
H       1.299562   -2.832445    1.388963
H       2.115081   -1.588411    0.373630
