16

C      -0.106560    1.501801    0.004991
C       0.118295    0.023006    0.017573
N      -0.755957   -0.915785    0.752295
C       0.695556   -0.912847    1.032781
C       1.358589   -1.774867   -0.071649
C       0.781040   -0.812784   -1.120793
O      -0.022707   -1.877958   -1.700477
C       0.438463   -2.796871   -0.771543
O       0.170652   -3.949383   -0.701880
H       0.774551    2.032904   -0.370480
H      -0.954930    1.763298   -0.637922
H      -0.318578    1.875957    1.012254
H      -1.216293   -0.383440    1.489875
H       1.082661   -0.729246    2.026686
H       2.416230   -2.009328    0.019468
H       1.369750   -0.279652   -1.865287
