15

C       0.004629    1.630973    0.150817
C      -0.054373    0.098042    0.005327
C       0.697276   -0.575035    1.067404
C       1.320013   -1.100101    1.949958
C      -1.468584   -0.426864   -0.037062
N      -2.509699    0.308266    0.247510
O      -3.588242   -0.569917    0.076385
C      -3.056322   -1.734361   -0.297160
N      -1.767115   -1.728663   -0.391978
H       1.046058    1.959109    0.141716
H      -0.529711    2.112014   -0.671781
H      -0.453504    1.947561    1.089717
H       0.399389   -0.184610   -0.954510
H       1.869444   -1.575729    2.724329
H      -3.739330   -2.550388   -0.482945
