17

C      -0.110615    1.559917   -0.059052
C       0.050518    0.025873   -0.005740
C      -1.334066   -0.621494    0.045752
O      -1.790718   -1.175557    1.009912
C       0.816058   -0.515042   -1.169394
C       1.841901   -1.403234   -1.282940
C       2.116677   -1.534295   -2.683534
C       1.233512   -0.721771   -3.316736
O       0.432546   -0.093937   -2.412624
H       0.870508    2.041571   -0.084356
H      -0.657912    1.863179   -0.955692
H      -0.653820    1.918287    0.819719
H       0.568511   -0.266654    0.911750
H      -1.910371   -0.530154   -0.902820
H       2.342552   -1.902098   -0.467892
H       2.870682   -2.149684   -3.148318
H       1.048942   -0.480326   -4.350315
