21

C       0.147604    1.486915    0.375819
C      -0.072151    0.006896    0.031683
C       0.610033   -0.428635   -1.227196
C       1.007002   -1.797618   -1.781530
C       0.321574   -1.525912   -3.116413
C       0.515602   -0.022870   -2.770627
C      -0.243012    1.086985   -3.429616
O       1.969328    0.134921   -2.826043
C       2.024615   -0.649710   -1.638454
H       1.213564    1.709003    0.485750
H      -0.248183    2.139987   -0.408169
H      -0.353585    1.749296    1.312722
H       0.294672   -0.620225    0.855124
H      -1.148837   -0.199578   -0.040554
H       1.099304   -2.730334   -1.238638
H       0.793844   -1.870557   -4.042509
H      -0.733325   -1.813396   -3.092646
H      -1.320796    0.943907   -3.305982
H       0.034802    2.057046   -3.008357
H      -0.021150    1.105325   -4.502637
H       2.952006   -0.703638   -1.082705
