16

C       0.009715    1.536446    0.025962
C       0.010501    0.033305   -0.001089
C       0.061295   -0.689968   -1.206179
N       0.158888   -0.027748   -2.427540
C       0.074504   -2.091577   -1.143909
N       0.046258   -2.787951   -0.012240
C      -0.004123   -2.114564    1.136996
C      -0.024022   -0.726849    1.160842
F      -0.074765   -0.102287    2.346536
H       0.863419    1.937004   -0.532589
H      -0.899879    1.947224   -0.432408
H       0.059334    1.907561    1.049690
H      -0.292823    0.873816   -2.471447
H      -0.067278   -0.595573   -3.231370
H       0.113395   -2.665332   -2.068812
H      -0.030749   -2.675620    2.065929
