25

C       0.223178    1.543169   -0.039342
C       0.041078    0.020162    0.029361
C       0.774823   -0.555817    1.248068
C      -1.442217   -0.396251    0.049779
C      -2.220418   -0.036491   -1.223630
C      -3.640012   -0.645533   -1.288369
C      -4.574643   -0.118550   -0.185505
C      -4.239776   -0.320579   -2.642044
O      -4.507391   -1.122079   -3.499315
H       1.285300    1.809115   -0.039357
H      -0.222496    1.973261   -0.941016
H      -0.239366    2.030069    0.828144
H       0.494813   -0.415610   -0.872937
H       0.358903   -0.156947    2.181283
H       0.691021   -1.647040    1.286888
H       1.839564   -0.301335    1.226027
H      -1.497565   -1.483014    0.198366
H      -1.922856    0.057132    0.926541
H      -2.297681    1.053603   -1.325619
H      -1.652417   -0.388845   -2.094797
H      -3.569141   -1.737431   -1.227792
H      -5.572618   -0.559436   -0.271243
H      -4.188754   -0.360952    0.807631
H      -4.680795    0.970896   -0.246938
H      -4.420033    0.770913   -2.803655
