25

C      -0.015366    1.483822    0.006559
C      -0.021440   -0.052603   -0.036844
C      -1.471324   -0.591885    0.075884
C      -1.674694   -0.864679    1.575771
C      -0.326080   -1.467034    2.004488
C       0.728660   -0.658137    1.217525
C       1.940208   -1.439260    0.662499
C       2.202351   -0.816141   -0.718907
C       0.784905   -0.563069   -1.259550
H       1.006231    1.880282    0.008178
H      -0.534981    1.904083   -0.862134
H      -0.512604    1.860935    0.907326
H      -2.212316    0.099231   -0.338978
H      -1.566590   -1.534036   -0.477899
H      -1.857519    0.075132    2.111953
H      -2.525753   -1.521110    1.782711
H      -0.167320   -1.440184    3.086828
H      -0.286841   -2.521870    1.703000
H       1.088640    0.167125    1.842350
H       2.812027   -1.404554    1.322891
H       1.675798   -2.497615    0.539583
H       2.742984    0.132582   -0.610214
H       2.805257   -1.454133   -1.372737
H       0.362705   -1.509012   -1.620560
H       0.765160    0.137601   -2.100672
