18

C      -0.452022    1.388428    0.110303
C       0.151631    0.004991    0.005405
O       1.350534   -0.020597   -0.809518
C       2.060588   -0.795115    0.176627
C       0.922896   -0.615242    1.195452
C       1.114988    0.074949    2.559875
C       0.528270   -1.226002    3.138988
O       0.370485   -1.784371    1.815428
H       0.269912    2.104291    0.514947
H      -0.758582    1.739156   -0.879966
H      -1.338363    1.375256    0.753943
H      -0.589012   -0.716893   -0.369715
H       2.194089   -1.842791   -0.124361
H       3.034333   -0.356390    0.426517
H       2.151938    0.287304    2.826502
H       0.514198    0.971938    2.717796
H       1.208589   -1.824968    3.755241
H      -0.432685   -1.131676    3.657476
