15

C       0.012241    1.459318    0.035408
C       0.010068   -0.033427   -0.022091
C      -0.143599   -0.826880   -1.142029
N      -0.069498   -2.118681   -0.652150
N      -0.125496   -3.416167   -1.091319
C       0.031693   -4.104027    0.010805
N       0.184499   -3.317883    1.130043
C       0.118226   -2.013697    0.692628
N       0.175732   -0.784839    1.139780
H       0.957440    1.835646    0.441646
H      -0.129181    1.890624   -0.959124
H      -0.787288    1.828490    0.686857
H      -0.289660   -0.605194   -2.183900
H       0.041371   -5.181001    0.047950
H       0.319888   -3.625199    2.076332
