19

C      -0.042123    1.502155   -0.143278
C       1.491714    1.330925   -0.021135
C       1.216524    0.065872    0.877233
C      -0.018926   -0.019469   -0.026036
O      -1.059129   -0.919285   -0.328909
C       0.082091   -0.830500   -1.226841
C       0.114424   -0.068997   -2.528869
C       1.347574    0.921923   -2.467818
O       2.099753    0.926678   -1.251791
H      -0.447561    1.970303    0.757819
H      -0.459651    1.989587   -1.022907
H       2.082086    2.141425    0.413088
H       1.946463   -0.743208    0.831454
H       1.015439    0.357386    1.912466
H       0.712282   -1.716748   -1.176396
H       0.212367   -0.733230   -3.392138
H      -0.816387    0.489946   -2.654808
H       2.086960    0.632178   -3.218003
H       1.015077    1.938005   -2.718172
