18

C      -0.298484    1.482276    0.053337
C       0.033293    0.005219    0.098951
C       1.400544   -0.558195   -0.243375
C       2.548251    0.306967   -0.638204
O       3.341335   -0.041903   -1.482394
C       0.860445   -0.630110    1.195657
C       1.468950    0.184667    2.298566
N       1.426555   -0.418142    3.522079
O       1.950011    1.296895    2.150807
H       0.478322    2.090973    0.514553
H      -0.441532    1.807256   -0.982281
H      -1.233372    1.668544    0.592251
H      -0.779611   -0.631612   -0.240755
H       1.416866   -1.506821   -0.770587
H       2.634225    1.278679   -0.124451
H       0.551638   -1.628046    1.492017
H       1.087574   -1.353194    3.659391
H       1.846382    0.065589    4.298895
