18

C      -0.300379    1.619042   -0.019828
C      -0.026740    0.126790   -0.092800
C       1.031616   -0.326851   -1.127794
C       1.855938   -0.688039    0.103652
O       2.922465   -1.146982    0.352616
O       0.895359   -0.275905    0.997733
C      -1.293370   -0.697092   -0.036580
C      -1.303578   -2.088897    0.471351
N      -1.916799   -0.999607    1.258412
H       0.633738    2.187265   -0.022209
H      -0.901763    1.933734   -0.878634
H      -0.854698    1.863623    0.890659
H       0.758488   -1.180128   -1.750403
H       1.471564    0.458554   -1.745044
H      -2.007313   -0.425109   -0.812921
H      -2.005817   -2.805725    0.056196
H      -0.371559   -2.513236    0.831274
H      -1.266952   -0.741986    2.000106
