16

C      -0.017837    1.439334    0.052317
N       0.002468   -0.022910    0.015210
C      -0.020867   -0.634383   -1.227897
O      -0.058101   -0.042843   -2.288221
N      -0.000557   -2.025395   -1.189992
C       0.039854   -2.760099   -0.033174
C       0.062275   -2.154574    1.163922
C       0.043490   -0.701520    1.252414
N       0.060016    0.012439    2.317999
H       0.870316    1.806861    0.570930
H      -0.045391    1.796215   -0.974112
H      -0.892889    1.781981    0.609008
H      -0.018291   -2.463376   -2.096421
H       0.051813   -3.836123   -0.158340
H       0.094040   -2.727862    2.079703
H       0.089700   -0.590860    3.137952
