21

C       0.555877    2.164278   -0.376429
C      -0.134060    1.041327    0.399061
C       0.670066    0.540544    1.622611
C      -0.145350   -0.494285    2.434481
C       0.540750   -0.939682    3.703593
C       0.273767   -0.297468    4.997610
O      -0.286847   -1.573080    4.681906
C       1.966280   -0.006002    1.218945
C       3.018729   -0.473938    0.872035
H       1.529248    1.839832   -0.755308
H      -0.052872    2.479303   -1.229176
H       0.719492    3.042199    0.258657
H      -1.111425    1.383910    0.759722
H      -0.324979    0.189815   -0.264857
H       0.858038    1.405531    2.275911
H      -1.116449   -0.058644    2.693780
H      -0.341459   -1.369592    1.803423
H       1.511205   -1.416721    3.567365
H       1.036534   -0.299234    5.775005
H      -0.439936    0.524548    5.051965
H       3.954007   -0.878659    0.573110
