19

O       0.038389    1.424584   -0.056984
C       0.097023    0.017387    0.026286
C      -1.303045   -0.582526    0.112670
O      -1.990785   -0.130849   -1.048043
C      -1.301255   -2.103504    0.167225
O      -2.659385   -2.514801    0.172636
C      -2.836949   -3.907738    0.116498
C      -4.328109   -4.199996    0.115368
O      -4.787336   -5.308996    0.071890
H      -0.612113    1.619826   -0.742477
H       0.618342   -0.417616   -0.842670
H       0.670619   -0.230750    0.925445
H      -1.797021   -0.198350    1.018977
H      -2.853329   -0.560419   -1.046399
H      -0.785476   -2.513765   -0.715157
H      -0.784217   -2.464596    1.070307
H      -2.387576   -4.344806   -0.790746
H      -2.377873   -4.415627    0.980822
H      -4.962136   -3.286728    0.159072
