14

O      -0.072467    1.349261    0.009260
C       0.021378   -0.029494    0.001746
C       0.660498   -0.969990    1.074476
C       0.031362   -1.892491   -0.007539
C      -1.214404   -0.957849    0.006315
C       0.644453   -0.959289   -1.089588
H       0.818626    1.715056    0.004429
H       1.752618   -0.971935    1.143605
H       0.189976   -0.975873    2.061087
H       0.031840   -2.979488   -0.012918
H      -1.819804   -0.959341    0.916407
H      -1.833225   -0.950386   -0.894674
H       0.159355   -0.955452   -2.069126
H       1.735428   -0.960469   -1.174917
