17

O      -0.125134    1.385741   -0.035389
C      -0.051142    0.007485    0.024799
C       0.359411   -0.818093    1.292870
C      -0.388560   -1.927157    0.503512
C      -1.358448   -0.822261    0.015982
N       0.433373   -2.148647   -0.714620
C       0.780973   -0.743103   -1.067737
C       0.402142   -0.395157   -2.441636
N       0.119153   -0.100055   -3.522304
H       0.764144    1.757422   -0.033006
H       1.422975   -0.966717    1.506380
H      -0.171616   -0.470570    2.180650
H      -0.734006   -2.852530    0.958262
H      -2.048942   -0.488732    0.790865
H      -1.868455   -0.976082   -0.936114
H       1.276529   -2.667877   -0.490934
H       1.851189   -0.528780   -0.952758
