21

C      -0.222959    1.479989   -0.069673
C       0.089855    0.001283    0.060665
O       0.915687   -0.396285   -1.037953
C       1.389663   -1.699419   -0.744777
C       1.456096   -1.785740    0.785025
C       1.432698   -3.056007    1.515246
O       2.644669   -2.303203    1.381352
C       0.874428   -0.465304    1.310012
C       1.986564    0.493143    1.750144
H       0.690822    2.078582   -0.073650
H      -0.756647    1.666379   -1.005632
H      -0.856590    1.811766    0.758695
H      -0.856436   -0.568458    0.019556
H       0.707381   -2.462498   -1.152517
H       2.376022   -1.833593   -1.197532
H       1.016092   -3.097535    2.521456
H       1.407436   -3.998563    0.967704
H       0.192119   -0.645990    2.146856
H       2.622259    0.770608    0.903785
H       1.572491    1.407499    2.184128
H       2.620068    0.009654    2.497240
