13

O      -0.685979    0.879706    0.280067
C       0.048707   -0.257196   -0.124508
C       0.843632    0.017347   -1.347573
N       1.456391    0.257162   -2.296582
C       0.918137   -0.799463    0.925892
C       1.622865   -1.223446    1.801454
C       2.489084   -1.744254    2.855985
C       1.796802   -2.663484    3.768146
N       1.264301   -3.387365    4.492397
H      -0.061479    1.552585    0.577035
H      -0.707070   -1.007625   -0.387025
H       3.344748   -2.270155    2.413679
H       2.907634   -0.918620    3.445309
