16

C       0.026275    1.446212   -0.023131
C       0.028038   -0.006340   -0.006629
C       0.008846   -1.213256    0.007329
C      -0.006310   -2.661504    0.023963
O      -1.047863   -3.293157    0.049327
C       1.329071   -3.323555    0.008087
C       1.457490   -4.638840    0.765324
C       1.431397   -4.655792   -0.723034
H       1.043311    1.851475   -0.034273
H      -0.498973    1.822726   -0.907707
H      -0.488006    1.843130    0.858943
H       2.188624   -2.664970   -0.014480
H       2.394231   -4.819860    1.279462
H       0.563586   -4.965829    1.283742
H       0.520004   -4.994145   -1.202223
H       2.349616   -4.848847   -1.265429
