13

C       0.088472    1.477457    0.026240
C       0.027171    0.028400   -0.054352
C      -0.036488   -1.173731   -0.124634
C      -0.168173   -2.615825   -0.223520
O      -1.191941   -3.178237   -0.518271
N       1.041856   -3.271160    0.066095
C       1.293793   -4.640777    0.071508
O       0.510944   -5.514892   -0.173640
H       0.822881    1.877105   -0.681177
H      -0.883506    1.925078   -0.204198
H       0.381928    1.800695    1.030681
H       1.821043   -2.671746    0.298051
H       2.353577   -4.825856    0.342470
