17

O      -0.132342    1.435324   -0.001642
C      -0.005410    0.030468   -0.015386
C       0.703182   -0.483762   -1.283454
C       0.019359    0.023471   -2.576790
O       0.213124    1.411954   -2.761538
C       0.548286   -0.686842   -3.742188
C       0.983159   -1.302983   -4.676973
C       0.746645   -0.421021    1.220088
O       1.193880    0.376061    2.008882
H       0.384472    1.741112    0.762868
H      -1.010958   -0.422967    0.027139
H       1.745652   -0.147781   -1.297290
H       0.697734   -1.579251   -1.274227
H      -1.058487   -0.211756   -2.499597
H       0.045685    1.822584   -1.900207
H       1.361188   -1.834537   -5.515096
H       0.876516   -1.513333    1.350983
