18

C       0.096997    1.638263   -0.422996
C       0.065135    0.158552   -0.072523
N       1.078202   -0.663901   -0.763978
C       1.704939   -1.130917    0.352740
O       2.654443   -1.844522    0.541726
C       0.691723   -0.364695    1.264052
C       1.308638    0.548706    2.309691
C       2.100638   -0.185799    3.372105
O       1.187132    1.751737    2.294035
H       1.094898    2.059759   -0.296630
H      -0.215381    1.772379   -1.465117
H      -0.587660    2.199797    0.216066
H      -0.946444   -0.238138   -0.220852
H       1.266931   -0.822948   -1.742972
H       0.049279   -1.089798    1.775643
H       2.805174   -0.878047    2.897811
H       2.622205    0.530691    4.007556
H       1.425096   -0.792438    3.987125
