25

C      -0.077995    1.580671    0.086774
C       0.034813    0.054319    0.007738
C       0.744523   -0.480677   -1.252483
C       2.212468   -0.027828   -1.312486
C       0.635687   -2.012437   -1.339258
C      -0.808855   -2.566858   -1.453064
C      -0.678996   -3.772120   -2.418442
O       0.705899   -3.922929   -2.708984
C       1.300734   -2.645736   -2.574401
H       0.899903    2.065413    0.161559
H      -0.582464    1.985618   -0.798011
H      -0.658166    1.882016    0.964656
H       0.561409   -0.321499    0.896299
H      -0.974523   -0.370653    0.053492
H       0.224538   -0.065625   -2.130622
H       2.701727   -0.365201   -2.230991
H       2.301101    1.061459   -1.281434
H       2.779736   -0.431732   -0.464946
H       1.111132   -2.446355   -0.449688
H      -1.213272   -2.861929   -0.482414
H      -1.482676   -1.810510   -1.869138
H      -1.031173   -4.714358   -1.988417
H      -1.245378   -3.591790   -3.345160
H       1.116313   -2.024434   -3.470404
H       2.379018   -2.792444   -2.476174
