23

C       0.074392    1.612874   -0.142952
C       1.586681    1.958032    0.003258
C       2.261151    0.669187    0.523713
C       1.342447   -0.479878    0.049101
C      -0.057083    0.123745    0.254545
C       1.657453   -0.902113   -1.404878
C       2.788662   -1.928571   -1.225966
O       2.684949   -2.433378    0.106958
C       1.588085   -1.811602    0.765175
H      -0.557385    2.252000    0.479640
H      -0.253739    1.764747   -1.175695
H       2.005724    2.248885   -0.965013
H       1.757748    2.801653    0.677431
H       3.295434    0.562643    0.183715
H       2.285457    0.673899    1.620057
H      -0.326846    0.041168    1.315228
H      -0.830637   -0.403496   -0.312455
H       0.777342   -1.375658   -1.853596
H       1.949952   -0.068705   -2.049033
H       2.714918   -2.757065   -1.941779
H       3.779396   -1.470445   -1.349835
H       1.847625   -1.687960    1.822556
H       0.691241   -2.451758    0.709215
