19

C      -0.797131   -1.896889   -3.547740
O      -1.721123   -2.812445   -2.988495
C      -2.403587   -2.302948   -1.855765
C      -1.519508   -2.148800   -0.631264
O      -0.896270   -3.244461   -0.118120
C      -1.266199   -4.555281   -0.548134
N      -1.352964   -0.997974   -0.127244
C      -0.520125   -0.874975    1.060566
H      -0.355978   -2.386532   -4.418794
H      -1.297802   -0.971737   -3.868919
H       0.000498   -1.628617   -2.842303
H      -2.834942   -1.315184   -2.055576
H      -3.219117   -3.007458   -1.659207
H      -0.554029   -5.233832   -0.075217
H      -2.276087   -4.813384   -0.207413
H      -1.207808   -4.649573   -1.634161
H       0.544375   -0.928463    0.796893
H      -0.701727    0.098576    1.522981
H      -0.708160   -1.664940    1.798112
