19

N      -2.124185    0.863962   -1.679526
C      -2.135269   -0.504199   -1.419045
O      -2.575523   -1.320198   -2.205938
N      -1.574275   -0.837341   -0.200079
C      -1.317107   -2.212737    0.143907
C      -0.217583   -2.884274   -0.659336
O       1.018502   -2.183818   -0.565239
C      -1.481176   -2.553742    1.603442
C      -2.490948   -3.038448    0.592654
H      -2.722183    1.106404   -2.455478
H      -2.214208    1.486225   -0.889628
H      -0.950936   -0.161909    0.216942
H      -0.039860   -3.890061   -0.263810
H      -0.543034   -2.980650   -1.702219
H       0.996058   -1.472928   -1.211956
H      -0.786098   -3.267269    2.031729
H      -1.783003   -1.757187    2.274286
H      -3.463582   -2.563389    0.572880
H      -2.496522   -4.089544    0.325665
