18

O      -0.019316    1.437144   -0.147513
C      -0.017950    0.032297   -0.015493
C      -1.399108   -0.635063    0.003595
C      -2.244616   -0.474548   -1.199128
N      -1.483216   -1.721475   -1.004120
C      -0.180958   -1.802997   -1.699858
C      -0.054229   -1.102981   -3.062783
O       0.542753    0.068691   -2.442112
C       0.711017   -0.655346   -1.190305
H      -0.070872    1.615235   -1.096610
H       0.499545   -0.191305    0.923749
H      -1.851890   -0.840008    0.969277
H      -3.321503   -0.597191   -1.128413
H      -1.923007    0.241864   -1.949068
H       0.188580   -2.827155   -1.636198
H       0.655614   -1.585156   -3.744633
H      -0.978581   -0.870797   -3.599627
H       1.768805   -0.857211   -0.995307
