15

C      -0.015100    1.496591    0.109840
C      -0.010593    0.013975   -0.002881
C      -0.039660   -0.858672   -1.072408
N      -0.020579   -2.199529   -0.702668
C       0.020054   -2.116499    0.601512
N       0.059632   -2.908311    1.729129
C       0.089001   -2.046528    2.800856
N       0.071492   -0.783870    2.458034
N       0.028595   -0.841544    1.087279
H       0.881328    1.872166    0.617348
H      -0.048651    1.939958   -0.888178
H      -0.882127    1.862658    0.672397
H      -0.074155   -0.583165   -2.116395
H       0.065757   -3.912127    1.755101
H       0.123057   -2.388352    3.822534
