18

N      -0.043826    1.578690    0.038772
C      -0.028643    0.128623   -0.036783
C      -1.459040   -0.422822    0.152966
C      -2.001059   -0.175974    1.481329
C      -2.444423    0.002893    2.583119
C       0.593727   -0.458379   -1.356064
N      -0.068724   -0.111882   -2.612617
C       2.000313   -0.032055   -1.428045
N       3.091780    0.347440   -1.433714
H       0.896338    1.958040   -0.015031
H      -0.588712    1.984327   -0.716406
H       0.587820   -0.237406    0.792254
H      -2.119217    0.025346   -0.602447
H      -1.457552   -1.503276   -0.042873
H      -2.835381    0.171826    3.555709
H       0.590854   -1.553398   -1.276531
H      -1.009795   -0.489521   -2.630447
H      -0.132434    0.896170   -2.717963
