21

C       0.809368   -0.383674   -1.308878
C      -0.065838   -0.133391   -0.074531
C      -1.469858   -0.721033   -0.264957
C       0.642289   -0.650198    1.211522
C      -0.069592   -0.218255    2.529972
C      -0.177318    1.227161    2.679797
C      -0.249950    2.421683    2.795930
C       0.817012   -2.101679    1.209533
C       0.943610   -3.297623    1.227844
H       0.957482   -1.455871   -1.474818
H       0.341258    0.034845   -2.205407
H       1.796488    0.078435   -1.199611
H      -0.162532    0.950279    0.062162
H      -1.431152   -1.811955   -0.350198
H      -2.139102   -0.468629    0.563132
H      -1.922892   -0.327690   -1.180341
H       1.639400   -0.190371    1.229572
H      -1.063828   -0.676021    2.573239
H       0.491520   -0.633442    3.374544
H      -0.321611    3.475059    2.908795
H       1.069543   -4.352050    1.237402
