17

O       0.118176   -0.077867    0.578643
C       0.065568    0.978015   -0.000898
C       1.217482    1.948664   -0.070728
C       1.441936    2.848508   -1.293070
C       0.555965    4.087844   -1.264190
C      -0.667972    4.114657   -0.361274
O      -0.184995    3.750286    0.939149
C       1.140733    3.280287    0.785354
C       1.776693    4.039705   -0.402184
H      -0.864089    1.291140   -0.527151
H       2.132746    1.410440    0.193060
H       1.932664    2.543720   -2.209831
H       0.562880    4.697210   -2.160066
H      -1.103927    5.119480   -0.306635
H      -1.455591    3.417703   -0.676920
H       1.621787    3.258347    1.760985
H       2.608492    4.729446   -0.404639
