14

C      -0.064606    1.446399    0.010928
C       1.417976    1.841632   -0.026666
O       2.164837    1.418328    1.108260
C       2.255260    0.621003   -0.092989
C       1.292523   -0.503113   -0.075710
N       1.266655   -1.821576   -0.064397
C      -0.074603   -2.068039    0.036789
N      -0.862515   -0.995078    0.091604
N       0.043106   -0.004729    0.001526
H      -0.564779    1.802383    0.915680
H      -0.606311    1.810291   -0.867741
H       1.707323    2.790789   -0.466815
H       3.229090    0.560290   -0.562856
H      -0.484635   -3.066259    0.070984
