17

C       0.089901    1.607114    0.084521
C       0.071455    0.109577    0.010790
C      -0.932210   -0.778612    0.740271
C       0.540032   -0.939564    1.025480
N       1.190037   -1.661653   -0.085318
C       1.523857   -2.821484   -0.722675
N       1.414025   -2.663143   -2.028446
C       0.876019   -1.404200   -2.245878
C       0.744045   -0.771297   -1.036813
H       1.101049    1.998136   -0.064916
H      -0.555779    2.043269   -0.685898
H      -0.273664    1.956548    1.055821
H      -1.504019   -0.289246    1.526005
H      -1.464045   -1.561652    0.208906
H       1.019123   -0.825809    1.988284
H       1.914463   -3.696108   -0.225669
H       0.668560   -1.054130   -3.244628
