16

C       0.085218    1.563196   -0.003396
C       1.357649    0.748787   -0.050684
C       0.024301    0.064211    0.017469
C      -0.526917   -0.862701    1.149024
N      -1.079559   -1.661185    0.027998
N      -1.776704   -2.724895   -0.402154
N      -1.755500   -2.614955   -1.711274
C      -1.058114   -1.502556   -2.110663
C      -0.617254   -0.881177   -0.962700
H      -0.149203    2.090617    0.915167
H      -0.239870    2.067700   -0.906318
H       1.903466    0.695884   -0.985969
H       1.982350    0.726332    0.835955
H       0.218888   -1.400904    1.737717
H      -1.295538   -0.431654    1.793903
H      -0.943227   -1.262171   -3.153591
