20

C      -0.161328    1.629730    0.156967
C       0.019781    0.118606    0.118234
C       1.171415   -0.552826   -0.703148
C       2.157373   -0.077308    0.404285
C       0.914673   -0.631406    1.161466
C       0.942603   -1.855410    0.162114
C      -0.282041   -2.756782   -0.044462
C       2.110132   -2.733366    0.286020
N       2.993184   -3.475164    0.376486
H       0.762944    2.190732    0.307578
H      -0.609278    1.976684   -0.780663
H      -0.849097    1.903216    0.964660
H      -0.961120   -0.332585   -0.035780
H       1.322753   -0.531663   -1.783727
H       3.088636   -0.634581    0.509017
H       2.339225    0.992754    0.474425
H       0.768616   -0.701288    2.240721
H      -1.211854   -2.199076   -0.151539
H      -0.148665   -3.368478   -0.941675
H      -0.391640   -3.438612    0.804113
