20

C      -0.052177    1.608918   -0.017258
C      -0.013287    0.074409    0.021511
C       0.743099   -0.417670    1.275037
C       2.218143   -0.091057    1.207581
O       2.824601    0.551012    2.024986
C      -1.444626   -0.534567   -0.041273
C      -2.262283   -0.083399   -1.269170
C      -1.375378   -2.000755   -0.018344
N      -1.310414   -3.155061   -0.015747
H       0.952526    2.022321    0.109612
H      -0.446726    1.987408   -0.962799
H      -0.671507    2.005587    0.795763
H       0.526540   -0.286299   -0.865175
H       0.327139    0.021181    2.187753
H       0.660155   -1.510686    1.346408
H       2.732597   -0.504331    0.307420
H      -1.981574   -0.227369    0.866670
H      -2.457373    0.989633   -1.227781
H      -1.725547   -0.306306   -2.196026
H      -3.222929   -0.602689   -1.300584
