23

C       0.799574   -0.444648    1.181288
C      -0.094674    0.034123    0.037034
O       0.587707   -0.059193   -1.218638
C      -1.487745   -0.641447   -0.033401
C      -2.228304   -0.196563   -1.324917
O      -1.957281    1.140996   -1.696676
C      -1.414393   -2.173798    0.074544
C      -2.768347   -2.877223   -0.022415
O      -0.529380   -2.619692   -0.970009
H       1.711105    0.158458    1.207003
H       0.296402   -0.347875    2.149935
H       1.095356   -1.489593    1.047087
H      -0.278915    1.104579    0.169081
H       0.591855   -0.999399   -1.446885
H      -2.052268   -0.290002    0.840252
H      -1.969581   -0.888520   -2.137606
H      -3.310284   -0.258844   -1.173778
H      -1.029790    1.142465   -1.969651
H      -0.967998   -2.425901    1.047153
H      -3.239958   -2.705188   -0.993076
H      -2.648293   -3.959193    0.108316
H      -3.445132   -2.524627    0.762544
H      -0.444272   -3.576401   -0.915906
