18

N       0.075646    1.190833   -0.441464
C       0.047193   -0.024617    0.176768
O       0.977702   -0.440887    0.839786
C      -1.251430   -0.825266    0.049610
C      -2.245354   -0.472514   -1.086536
C      -3.044670   -1.774039   -1.343599
C      -2.061899   -2.871544   -0.981725
O      -0.751052   -2.658692   -1.526585
C      -0.989894   -2.310413   -0.155165
H       0.937835    1.710518   -0.408148
H      -0.640257    1.487982   -1.079523
H      -1.751068   -0.720765    1.023556
H      -2.893146    0.370938   -0.834441
H      -1.689727   -0.218018   -1.992796
H      -3.916533   -1.843639   -0.681552
H      -3.406638   -1.845473   -2.373712
H      -2.378720   -3.909234   -0.915962
H      -0.422997   -2.868963    0.581360
