19

C      -0.586881    1.364010   -0.073185
C      -0.128862   -0.072008    0.015280
C       1.234977   -0.461786   -0.440360
N       0.885011   -0.516633    0.981633
C       1.475570    0.380825    1.882543
C       0.935943    1.119655    2.914561
C       2.021517    1.744921    3.597219
C       3.183426    1.367727    2.974057
N       2.839457    0.541858    1.922333
H       0.247352    2.061778    0.028636
H      -1.069351    1.537095   -1.040999
H      -1.313698    1.597361    0.711401
H      -0.922720   -0.807045   -0.105634
H       1.417317   -1.421649   -0.915938
H       1.885954    0.346516   -0.771093
H      -0.113220    1.191301    3.153110
H       1.947518    2.402228    4.450107
H       4.214298    1.611302    3.171362
H       3.483257    0.058973    1.320704
