14

C      -0.056094    1.510131   -0.001815
C       1.438316    1.888663   -0.025266
O       2.195815    1.466722    1.110146
C       2.292557    0.672410   -0.089161
C       1.320817   -0.441294   -0.081420
C       0.027111    0.007203    0.001544
N      -0.814118   -1.048032    0.098865
N      -0.098633   -2.143942    0.061641
N       1.210165   -1.781683   -0.036486
H      -0.550757    1.918484    0.885220
H      -0.570419    1.910819   -0.882343
H       1.749113    2.836066   -0.457371
H       3.269432    0.633037   -0.558489
H       1.910422   -2.504855   -0.068328
