23

C      -0.049526    1.571943   -0.038243
C       0.154560    0.057696   -0.044524
C       1.111769   -0.466608   -1.134981
C       1.446646   -1.906711   -0.692176
C       1.419392   -1.893627    0.850051
C       2.719259   -1.411105    1.569324
O       3.964564   -1.541201    0.924299
C       2.103522    0.002579    1.743899
C       0.727448   -0.544753    1.252105
H       0.891969    2.102793    0.140393
H      -0.446331    1.919926   -0.997939
H      -0.755270    1.875890    0.742219
H      -0.822773   -0.419014   -0.210005
H       0.673341   -0.422560   -2.136638
H       2.016241    0.156416   -1.166031
H       0.675413   -2.591475   -1.060134
H       2.401448   -2.270860   -1.085737
H       1.005593   -2.820118    1.253987
H       2.843292   -1.920613    2.528967
H       3.942089   -1.017906    0.116378
H       2.135449    0.425449    2.750869
H       2.551669    0.733648    1.062272
H      -0.017088   -0.608433    2.048442
