16

C      -0.696959    1.334420    0.029512
C      -0.059645   -0.042013   -0.027109
O       1.153478   -0.073955   -0.837948
C       1.987945   -0.511923    0.272286
C       3.063789    0.408069    0.597967
C       3.953595    1.172288    0.857880
C       0.750439   -0.499606    1.161187
N       0.443914   -0.759664    2.355555
O       1.559790   -1.169294    3.095890
H       0.018318    2.076233    0.393441
H      -1.033349    1.630116   -0.968672
H      -1.562825    1.318100    0.698774
H      -0.779362   -0.790891   -0.384354
H       2.386832   -1.520298    0.095814
H       4.740747    1.846368    1.090651
H       1.184743   -1.318946    3.970815
