19

C      -0.104852    1.539806   -0.191615
C       0.037191    0.046464   -0.008846
O      -1.114417   -0.666331   -0.409705
C       1.303714   -0.745614   -0.227504
C       2.544301   -0.010226    0.286449
C       1.909593    0.016010    1.731588
C       1.808851    1.270056    2.458976
C       1.745717    2.303403    3.071996
C       0.646416   -0.660902    1.165514
H       0.751964    2.097325    0.187961
H      -0.222087    1.778961   -1.256624
H      -0.996233    1.893430    0.335094
H      -1.209241   -0.551832   -1.361853
H       1.308725   -1.585596   -0.911748
H       3.453904   -0.612877    0.258723
H       2.757798    0.963329   -0.162256
H       2.443413   -0.706923    2.356379
H       1.679519    3.215541    3.611508
H       0.065315   -1.407289    1.692845
