17

O      -0.875917    1.310649    0.063153
C       0.248534    0.881493    0.177692
C       1.447531    1.745087    0.092588
N       2.641671    1.265402    0.122902
C       3.518610    2.402854   -0.033797
C       4.730463    2.481754    0.869636
C       4.896423    2.188452   -0.598509
C       2.645912    3.630969   -0.370228
N       1.320930    3.112380   -0.018905
H       0.477473   -0.189749    0.332966
H       5.013789    3.462703    1.237546
H       4.869483    1.667720    1.571098
H       5.151705    1.176718   -0.891133
H       5.299876    2.967306   -1.238072
H       2.903696    4.515179    0.221350
H       2.709080    3.899664   -1.435189
H       0.477834    3.485475   -0.427659
