21

C       0.111641    1.551838    0.191438
C       0.015607    0.039164   -0.022864
C       0.865244   -0.453650   -1.203132
C       0.838751   -1.972319   -1.344431
C      -0.423652   -2.716532   -1.938051
C       0.057957   -2.252958   -3.356233
C       1.390543   -2.675071   -2.644775
C       0.562720   -3.874276   -2.156449
O       0.641183   -5.055772   -2.022564
H       1.144112    1.857825    0.393746
H      -0.227311    2.101117   -0.694043
H      -0.502858    1.874034    1.037619
H       0.329747   -0.481452    0.891261
H      -1.031622   -0.244270   -0.188135
H       0.537527    0.051453   -2.117347
H       1.908531   -0.146916   -1.047108
H       1.208698   -2.420539   -0.415558
H      -1.438892   -2.736485   -1.547578
H      -0.261315   -2.853847   -4.209735
H      -0.047220   -1.189962   -3.565401
H       2.402991   -2.643952   -3.042335
