15

N       0.018159    1.403789    0.135160
C      -0.022218    0.015797    0.059087
C      -1.168370   -0.739364    0.035260
N      -1.100817   -2.090242   -0.004052
N       0.027281   -2.817407   -0.000989
C       1.148292   -2.133206    0.043371
N       2.345668   -2.794038    0.096700
C       1.244205   -0.669772    0.051304
O       2.339451   -0.085751    0.032202
H       0.958634    1.728783   -0.061918
H      -0.682269    1.896507   -0.399634
H      -2.166466   -0.316750    0.039214
H      -1.940733   -2.643076   -0.033597
H       2.368085   -3.741798   -0.242209
H       3.132695   -2.199897   -0.122962
