17

O      -0.138993    0.614114   -1.047125
C      -0.023037    1.347271   -0.088748
N       1.108340    1.495635    0.653833
C       2.347605    0.796909    0.360188
C       3.411338    1.758925   -0.126815
N       4.086772    2.561038    0.886708
C       4.883915    1.580798    0.118171
C       5.442825    0.439339    0.899346
O       6.381900   -0.219167    0.530888
H      -0.847547    1.981804    0.291861
H       1.107988    2.161604    1.410433
H       2.690899    0.267729    1.253775
H       2.116589    0.060626   -0.412931
H       3.163527    2.243299   -1.070306
H       4.278452    3.501639    0.553877
H       5.545498    1.931936   -0.669965
H       4.932445    0.249466    1.868292
