16

C      -0.017597    1.521122    0.048142
C      -0.046301    0.025329    0.037352
N       1.152468   -0.734539   -0.308202
C       0.568668   -0.961781    1.030971
C       1.339956   -0.721156    2.203200
C       1.966404   -0.536333    3.212850
C      -0.693955   -1.815089    0.926479
O      -1.830691   -1.016432    1.278293
C      -1.280056   -0.871763   -0.038133
H       0.951140    1.876894    0.406272
H      -0.176879    1.922634   -0.958891
H      -0.802754    1.909981    0.702885
H       0.958444   -1.516670   -0.931814
H       2.523344   -0.367959    4.101193
H      -0.792258   -2.890940    1.010108
H      -1.937623   -1.057870   -0.879615
