18

O      -0.013896    1.342476   -0.286236
C       0.009987   -0.048767   -0.003644
C      -1.422411   -0.532259    0.069327
C      -2.248916   -0.548006   -1.253799
C      -2.744935   -1.937308   -0.850701
C      -4.114261   -2.452619   -0.822418
O      -3.136679   -2.959950   -1.744530
C      -1.653638   -2.068081    0.214846
H       0.893378    1.650647   -0.367255
H       0.544245   -0.607731   -0.790332
H       0.522104   -0.256242    0.950791
H      -1.949344    0.023743    0.849883
H      -2.991736    0.238167   -1.401440
H      -1.602346   -0.594064   -2.136241
H      -4.418807   -3.146013   -0.038821
H      -4.921585   -1.874382   -1.271001
H      -0.803513   -2.648880   -0.159890
H      -1.939701   -2.452573    1.196498
