14

O       0.004462   -0.012241    0.047480
C      -0.014193    1.167761   -0.053216
C      -1.057222    2.322077    0.022328
N      -0.026658    2.914827    0.953154
C       0.996105    2.352242   -0.004607
C       0.684621    3.048664   -1.348214
N      -0.058381    2.177459   -2.290802
C      -0.801671    3.026830   -1.328715
H      -2.074333    2.209345    0.391451
H      -0.041912    3.935794    0.933686
H       2.025419    2.269574    0.337670
H       1.281783    3.873540   -1.718839
H      -0.076797    2.605649   -3.215096
H      -1.432315    3.833670   -1.683233
