19

C      -0.020616    1.542121    0.018468
C       0.020864    0.031595    0.027499
C       0.968401   -0.813465   -0.911201
C       0.627251   -1.940461    0.118263
C       0.666574   -0.809104    1.197619
C      -0.885791   -2.047915   -0.098469
C      -1.692846   -3.250713   -0.212111
O      -1.260990   -4.383129   -0.148440
C      -1.275829   -0.760478   -0.156131
H       0.979169    1.964114    0.160093
H      -0.411565    1.922825   -0.931794
H      -0.661244    1.926413    0.820146
H       0.654176   -0.958981   -1.947803
H       2.009552   -0.479197   -0.863337
H       1.196218   -2.862978    0.201585
H       1.679511   -0.474332    1.442384
H       0.074102   -0.950627    2.105036
H      -2.778387   -3.056923   -0.367896
H      -2.267739   -0.349941   -0.298726
