18

C      -0.737351    1.280549   -0.062035
C       0.174192    0.059390    0.018852
C       1.197973   -0.039898   -1.148361
N       2.304931   -0.724846   -0.501352
N       3.402504   -1.316681   -0.989907
N       4.088519   -1.722897    0.050719
C       3.429997   -1.379801    1.197940
C       2.268299   -0.730210    0.849438
C       1.039390   -0.016516    1.320728
H      -0.155476    2.208410   -0.030517
H      -1.321820    1.281334   -0.987782
H      -1.441978    1.297922    0.775117
H      -0.439923   -0.847633   -0.014844
H       0.828966   -0.610105   -2.003142
H       1.518315    0.947934   -1.500795
H       3.828147   -1.626977    2.168162
H       1.284988    0.989750    1.684485
H       0.515406   -0.531777    2.129658
