19

C      -0.094449    1.596655   -0.062903
C       0.005584    0.071029    0.020971
C       0.799335   -0.566316   -1.171601
C       1.499183   -1.854887   -0.640380
C       1.599269   -1.547568    0.825070
N       2.272542   -2.064793    1.842005
N       1.858883   -1.310050    2.889947
C       0.956186   -0.342443    2.553026
C       0.765998   -0.475512    1.197085
H       0.901217    2.052678   -0.047529
H      -0.596372    1.906831   -0.985753
H      -0.664456    2.005257    0.778179
H      -1.016154   -0.336985    0.023830
H       0.159419   -0.758496   -2.037300
H       1.567780    0.148022   -1.489567
H       0.879772   -2.744276   -0.813369
H       2.462925   -2.038538   -1.123566
H       2.255199   -1.484960    3.797520
H       0.555918    0.328408    3.297061
