19

O       0.285777    0.829690   -0.818429
C       0.054677   -0.272084    0.012424
C      -0.025881   -0.075955    1.553289
C      -1.214233   -1.076178    1.573851
C      -1.387807   -0.875026    0.045225
N      -2.347370    0.180254   -0.252742
C      -2.931528    0.165026   -1.592891
C      -3.740368   -0.229871   -0.408417
H      -0.471325    1.415722   -0.690719
H       0.794040   -1.032609   -0.255321
H       0.862141   -0.316510    2.141797
H      -0.349136    0.939588    1.796113
H      -0.902221   -2.096310    1.811561
H      -2.077303   -0.817616    2.190366
H      -1.569649   -1.778856   -0.557854
H      -3.076528    1.134726   -2.060001
H      -2.616881   -0.624635   -2.272155
H      -3.970331   -1.287333   -0.292031
H      -4.483455    0.446417    0.003944
