18

C      -0.622292    0.914834   -0.646094
N       0.546087    0.211777   -0.031763
H       1.085059    0.829566    0.572266
H       0.203865   -0.627986    0.510507
C       1.407860   -0.506891   -1.046078
C       2.812394   -0.717263   -0.493577
C       0.650765   -1.857564   -1.200013
O       0.116112   -2.268009   -0.172647
C       0.376151   -2.299346   -2.647852
O       0.825637   -3.283568   -3.199341
O      -0.404918   -1.359728   -2.984427
H      -0.272374    1.838113   -1.109473
H      -1.028373    0.246453   -1.410956
H      -1.356297    1.134537    0.129687
H       1.395745    0.056505   -1.976376
H       2.783140   -1.286291    0.441406
H       3.394003   -1.295157   -1.216012
H       3.331762    0.232458   -0.324953
