19

C      -0.784315    1.250592    0.264787
C      -0.013157   -0.037253    0.071234
C       0.765468   -0.229652   -1.253689
C       1.989447   -0.260317   -0.345344
C       3.197394   -1.106287   -0.366849
C       3.345844    0.419800   -0.497542
C       3.722536    0.993084   -1.802961
O       4.304759    2.038513   -1.962267
O       1.232095   -0.056196    0.834141
H      -0.177679    2.114803   -0.022229
H      -1.694658    1.243406   -0.344736
H      -1.075720    1.366818    1.313098
H      -0.626692   -0.902945    0.348343
H       0.560028   -1.154759   -1.794980
H       0.707030    0.617167   -1.940330
H       3.530059   -1.541613    0.568529
H       3.399140   -1.700792   -1.253550
H       3.693807    0.964641    0.373398
H       3.414399    0.370102   -2.677858
