22

C       0.406921    1.374411    0.234419
C       0.076156   -0.096648    0.065005
O       0.909242   -0.609925   -0.984226
C       0.789723   -1.927806   -1.292110
N      -0.046734   -2.654040   -0.685306
C      -0.219349   -4.057434   -0.991581
C       1.754665   -2.245604   -2.433611
C       1.122946   -1.873046   -3.783028
O       3.000824   -1.598273   -2.243180
H       1.456760    1.511190    0.510030
H       0.218736    1.927702   -0.690335
H      -0.213977    1.805850    1.025168
H       0.261940   -0.668801    0.979715
H      -0.973219   -0.254391   -0.205035
H      -0.196580   -4.631492   -0.058669
H      -1.211506   -4.214231   -1.432323
H       0.522548   -4.492764   -1.674580
H       1.974074   -3.316182   -2.423018
H       0.855963   -0.811799   -3.796754
H       1.841373   -2.063230   -4.584590
H       0.217225   -2.458212   -3.973084
H       2.799189   -0.710516   -1.924626
