21

C      -0.319277    1.473693   -0.107183
C       0.236588    0.051709    0.029693
C       0.765790   -0.506401   -1.272930
C      -0.184298   -1.128385   -2.256117
C       0.824925   -2.002381   -1.491856
C       2.015395   -2.493850   -2.220710
C       2.828185   -1.651882   -2.859876
C       2.580483   -0.168152   -2.837717
O       1.862019    0.264103   -1.688726
H       0.452505    2.153375   -0.476714
H      -1.158082    1.502790   -0.810822
H      -0.675035    1.849039    0.857127
H       1.051631    0.039461    0.763276
H      -0.540735   -0.622859    0.406137
H      -1.230227   -1.195399   -1.975137
H      -0.013328   -1.012901   -3.320379
H       0.425910   -2.647452   -0.715702
H       2.212586   -3.562015   -2.216622
H       3.693947   -2.005642   -3.410797
H       3.528479    0.379948   -2.804917
H       2.063094    0.159401   -3.756488
