20

C      -0.818693    1.062195   -1.196971
C       0.098918   -0.083154   -0.824310
O       1.456224    0.114555   -1.288623
C       2.002248   -0.367399   -0.041544
C       3.167020    0.468150    0.449486
C       0.602833   -0.298270    0.631520
C       0.390340    0.847213    1.632657
C      -0.989165    0.912864    2.112426
N      -2.083522    0.944792    2.482545
H      -0.444955    2.020542   -0.826175
H      -0.886497    1.131527   -2.287044
H      -1.824845    0.898922   -0.799380
H      -0.305686   -1.021871   -1.230984
H       2.325755   -1.414216   -0.147397
H       2.892977    1.519370    0.572741
H       3.546800    0.085213    1.402876
H       3.981059    0.419707   -0.280183
H       0.273277   -1.233168    1.088903
H       1.047434    0.708586    2.498939
H       0.652153    1.814499    1.193032
