14

O       0.100703    1.387045    0.381736
C       0.034606    0.022552    0.153411
C      -0.492384   -0.802594    1.266507
C      -1.339894   -0.655706   -0.004739
C      -2.514954    0.144048    0.008026
C      -3.516084    0.824727   -0.019790
C      -4.686795    1.654544   -0.010426
O      -5.686950    1.449248   -0.662681
H      -0.130785    1.847753   -0.432534
H       0.826269   -0.394311   -0.468806
H      -0.060169   -1.777477    1.457667
H      -0.841522   -0.262273    2.137827
H      -1.366780   -1.518832   -0.663210
H      -4.608432    2.533404    0.662791
