22

C      -0.242321    1.521650   -0.946463
C      -0.080368    0.230009   -0.135436
C      -1.400731   -0.466200    0.169843
C      -2.392222    0.283926    1.052127
C      -1.877906    0.590680    2.463420
C      -1.968816   -1.363732   -0.891559
C      -1.382787   -1.985781    0.370557
C      -0.160774   -2.734451    0.300468
N       0.826528   -3.336826    0.250500
H       0.736144    1.945128   -1.191133
H      -0.771400    1.334669   -1.886924
H      -0.801232    2.284996   -0.396136
H       0.567110   -0.461760   -0.684145
H       0.445164    0.445721    0.802212
H      -2.677145    1.217511    0.551925
H      -3.313456   -0.307214    1.124673
H      -2.655085    1.078709    3.058933
H      -1.580797   -0.325357    2.984843
H      -1.011138    1.257901    2.444700
H      -3.044894   -1.431004   -1.009810
H      -1.404014   -1.495510   -1.807807
H      -2.092046   -2.382601    1.090065
