17

C      -0.011488    1.567688   -0.084292
C       0.017551    0.037886    0.059701
O       0.786562   -0.330013    1.169508
C      -1.395449   -0.553975    0.231223
O      -1.700821   -1.110242    1.261228
N      -2.232310   -0.377621   -0.855279
C      -3.532056   -0.913686   -1.020739
N      -4.146325   -0.399683   -2.150393
O      -4.019763   -1.750867   -0.308819
H       1.015987    1.937803   -0.116888
H      -0.518959    1.893300   -0.999074
H      -0.512806    2.019941    0.776262
H       0.453472   -0.398977   -0.855189
H       0.171997   -0.801474    1.757751
H      -1.833720    0.096990   -1.651201
H      -3.951906    0.552761   -2.419822
H      -5.116598   -0.666361   -2.224844
