17

C       0.071458    1.439283   -0.052654
N       0.039089   -0.011865    0.018596
N      -0.041114   -0.648970   -1.173590
C      -0.033405   -1.940313   -1.180357
C       0.048181   -2.815837   -0.004829
N       0.060369   -4.108077   -0.033441
C       0.094500   -2.062879    1.223927
C       0.096636   -0.701686    1.211735
N       0.228632    0.084745    2.355388
H       0.909601    1.835123    0.527599
H       0.191887    1.701626   -1.102083
H      -0.860623    1.889747    0.314257
H      -0.094061   -2.392503   -2.168232
H       0.007540   -4.434946   -1.000740
H       0.124098   -2.596943    2.166130
H       0.164888   -0.463269    3.202301
H      -0.390939    0.883091    2.401178
