20

C      -0.022978    1.565788    0.009159
C      -0.011486    0.033447    0.087128
C      -1.393110   -0.561546    0.082845
N      -2.352921   -0.291020    1.194486
C      -3.127285   -1.443985    0.606347
C      -3.670232   -0.761154   -0.660258
C      -2.260889   -0.606285   -1.258033
O      -1.877933   -2.002207   -1.457432
C      -1.783470   -2.046519   -0.031293
H       0.993742    1.967594    0.044893
H      -0.486150    1.910114   -0.921391
H      -0.591611    1.993999    0.839429
H       0.546020   -0.388774   -0.757750
H       0.515087   -0.287287    0.996122
H      -1.899535   -0.612274    2.051662
H      -3.799563   -1.995119    1.260976
H      -4.292520   -1.391135   -1.298163
H      -4.173136    0.175441   -0.415537
H      -2.081643    0.027328   -2.125165
H      -1.279713   -2.915398    0.393907
