18

C       0.829685    1.526566   -0.299976
C       0.115672    0.210023    0.052667
C       0.180100   -0.857939   -1.081727
C       1.224939   -1.864858   -0.634073
O       2.472734   -1.267775   -0.275694
C       1.560273   -1.639238    0.782723
C       0.759902   -0.480212    1.245988
N       0.647647   -0.223902    2.488695
O      -0.193195    0.878932    2.710976
H       1.874480    1.336754   -0.557476
H       0.342152    2.005353   -1.155692
H       0.795341    2.218145    0.545434
H      -0.923090    0.439687    0.307406
H      -0.782297   -1.369262   -1.195870
H       0.433490   -0.414848   -2.049885
H       1.291779   -2.846826   -1.096056
H       1.907313   -2.400284    1.472834
H      -0.198528    0.940078    3.672321
