15

C      -0.020735    1.486807    0.113360
C      -0.044565   -0.005737    0.031946
C      -1.249880   -0.913777   -0.263336
C      -0.316587   -2.097825    0.126113
C       0.600878   -1.041230    0.851588
N       1.206480   -0.681748   -0.509005
C       0.743256   -1.991839   -0.961834
O       1.209928   -2.701786   -1.794639
H       0.954143    1.839684    0.458068
H      -0.214878    1.929331   -0.869035
H      -0.789523    1.843179    0.807075
H      -2.040044   -0.752952    0.474841
H      -1.674272   -0.919214   -1.272943
H      -0.693880   -3.047555    0.493996
H       1.209209   -1.060897    1.743949
