21

C       0.015213    1.519595    0.277022
C      -0.038868    0.032240   -0.114971
C      -1.423571   -0.544381   -0.086590
C      -2.112225   -1.039634   -1.117617
C      -3.497753   -1.496084   -0.736487
C      -3.417172   -1.552546    0.821393
C      -2.250636   -0.585774    1.184549
C      -4.670876   -1.273517    1.505060
C      -5.707074   -1.030499    2.065142
H       1.042847    1.893435    0.238812
H      -0.592699    2.125086   -0.402628
H      -0.359493    1.679746    1.292928
H       0.387886   -0.099129   -1.115679
H       0.603401   -0.534097    0.574887
H      -1.746022   -1.082389   -2.138410
H      -4.261393   -0.777943   -1.064230
H      -3.777211   -2.465439   -1.162504
H      -3.093122   -2.565683    1.089769
H      -1.687347   -0.935286    2.057281
H      -2.634538    0.410557    1.439162
H      -6.621973   -0.821433    2.561373
