16

O      -0.055989    1.446643    0.054810
C       0.011839    0.070052   -0.032082
C       1.191684   -0.644243    0.701848
N       0.965068   -2.105455    0.646160
C       1.556030   -1.413914   -0.519226
C       0.378774   -0.770393   -1.314978
N      -0.952290   -1.380558   -1.219976
C      -1.306616   -0.705333   -0.032572
N      -2.300462   -0.692886    0.742378
H       0.839358    1.803265    0.060655
H       1.801749   -0.202020    1.481825
H       1.726518   -2.547925    1.159967
H       2.526509   -1.697194   -0.908310
H       0.629441   -0.316149   -2.273900
H      -1.123372   -2.369943   -1.345707
H      -3.010569   -1.369988    0.456267
