20

C       0.081856    1.374533   -0.240442
C       1.313594    0.566674   -0.126418
C       1.959510    0.419525    1.259819
C       1.353714   -0.932562    1.681503
C      -0.120323   -0.615855    1.357501
C      -0.647069    0.363263    2.430870
C       0.515929    1.155340    3.062866
O       1.557729    1.472033    2.142422
N      -0.018653   -0.081602   -0.040799
H      -0.139593    2.060201    0.569424
H      -0.257739    1.705332   -1.218680
H       1.922647    0.330802   -0.996056
H       3.052209    0.434708    1.214725
H       1.730812   -1.724019    1.028177
H       1.546188   -1.217257    2.719291
H      -0.756971   -1.501634    1.312193
H      -1.400278    1.027760    1.997439
H      -1.150602   -0.203192    3.222334
H       0.176623    2.117457    3.457383
H       0.926775    0.588699    3.911470
