18

C      -0.160231    1.241717   -0.094865
N       0.160299   -0.176420    0.049883
C       1.589654   -0.484934   -0.098368
C       0.956215   -0.482724    1.263543
C       1.046413   -1.985591    1.323391
C       1.311711   -2.874260    2.451636
O       0.033114   -2.843425    1.798760
C       1.651397   -2.026109   -0.121760
O       0.924348   -2.677110   -1.115940
H       0.623115    1.915832    0.288743
H      -0.315315    1.464828   -1.154746
H      -1.090036    1.454008    0.441071
H       2.273539    0.231081   -0.536782
H       1.038985    0.244277    2.062030
H       1.896107   -3.780272    2.294963
H       1.324972   -2.481018    3.467777
H       2.669442   -2.423878   -0.137080
H       0.052043   -2.259032   -1.112561
