16

N      -0.028390    1.387958   -0.152816
C      -0.033357    0.008895    0.007225
C      -1.035040   -0.848585    0.338465
O      -0.477155   -2.111623    0.438750
C       0.830406   -1.930934    0.159806
N       1.153413   -0.701728   -0.108694
C       1.713899   -3.103229    0.176199
C       1.495835   -4.190535    1.175432
N       1.200411   -4.424694   -0.240110
H       0.752000    1.693626   -0.718381
H      -0.899002    1.772435   -0.491157
H      -2.089949   -0.768918    0.526780
H       2.720419   -2.875910   -0.156887
H       2.355382   -4.729527    1.563396
H       0.670263   -4.069433    1.870392
H       0.196667   -4.352049   -0.392995
