16

C       0.195875    1.413794    0.139597
C      -0.061901   -0.097519   -0.020321
C      -1.553350   -0.428682   -0.046212
O      -2.094449   -0.028392    1.204985
C       0.624892   -0.633570   -1.266915
O       0.022466   -1.085412   -2.218390
C       2.080116   -0.573060   -1.261412
C       3.283248   -0.534254   -1.244429
H       1.264242    1.627886    0.221847
H      -0.201146    1.966912   -0.718439
H      -0.308160    1.768824    1.040034
H       0.388873   -0.607097    0.842687
H      -2.032014    0.098487   -0.884070
H      -1.690143   -1.505102   -0.219682
H      -3.042384   -0.186304    1.184386
H       4.345986   -0.506099   -1.245664
