19

C       0.055120    1.473961    0.068012
C      -0.009196   -0.014157   -0.039118
C      -0.125626   -0.825713   -1.158490
C      -0.056188   -2.163438   -0.688545
C       0.106837   -2.139579    0.668147
C      -0.025406   -3.505896    1.261079
C       0.163523   -4.351317   -0.040244
N      -0.270081   -3.478973   -1.169304
N       0.095996   -0.824164    1.074060
H       1.046356    1.832863    0.376387
H      -0.168040    1.925149   -0.901707
H      -0.671709    1.867900    0.789669
H      -0.239652   -0.472049   -2.172012
H       0.717196   -3.777344    2.019635
H      -1.018498   -3.677738    1.703429
H       1.227471   -4.613666   -0.134087
H      -0.416296   -5.278166   -0.025469
H       0.233762   -3.695569   -2.021702
H       0.249866   -0.487575    2.008306
