16

O       0.072815    1.417587   -0.041744
C       0.006310    0.049357    0.002539
C       0.032096   -0.814124    1.326256
C      -1.443371   -0.461050    1.590832
C      -1.331599   -0.787797    0.090029
N      -0.440125   -1.973960    0.451906
C       0.549346   -2.137020   -0.643213
C       0.876078   -0.688507   -0.972285
O       1.613452   -0.170822   -1.775467
H       0.711905    1.629965   -0.741918
H       0.856696   -0.932017    2.031745
H      -2.003329   -1.178226    2.193269
H      -1.655686    0.576304    1.847126
H      -2.116541   -0.874617   -0.663567
H       1.424749   -2.696954   -0.299804
H       0.110079   -2.671201   -1.491438
