17

C      -0.109318    1.499493    0.014766
N       0.006798    0.047617    0.063829
C       1.318910   -0.532813   -0.183097
C       0.724278   -0.514941    1.183689
C       1.282474    0.148382    2.437754
N       0.134522    0.283877    3.350804
C       0.868017   -1.027222    3.282113
C       0.330438   -1.726787    2.041315
O      -0.058432   -2.829909    1.798056
H       0.800416    2.026032    0.347131
H      -0.324879    1.802357   -1.013924
H      -0.940219    1.810229    0.653500
H       1.332701   -1.459596   -0.750011
H       2.159409    0.139151   -0.360565
H       2.180760    0.741936    2.542337
H       0.465877    0.739339    4.202600
H       1.335384   -1.451057    4.160919
