18

C       0.067805    1.457597   -0.424030
C       0.085890    0.022545    0.060740
O       1.087918   -0.500109    0.490494
C      -1.259156   -0.725575    0.039608
C      -1.166809   -2.162808    0.638293
C      -1.734920   -1.558263    1.944176
N      -2.135297   -0.345047    1.184468
C      -1.980608   -0.659761   -1.292989
O      -1.452251   -0.454639   -2.356114
H       0.959645    1.978275   -0.073779
H       0.056066    1.443703   -1.518896
H      -0.834656    1.989650   -0.104700
H      -1.840103   -2.873844    0.155989
H      -0.152971   -2.556100    0.671978
H      -2.577896   -2.077070    2.409915
H      -0.959353   -1.385979    2.698966
H      -1.922302    0.546398    1.621761
H      -3.072309   -0.853933   -1.197343
