21

C      -0.197934    1.569848    0.020893
C       0.021917    0.051719   -0.023447
C       0.841561   -0.440664   -1.199977
C       1.832839   -1.252168   -0.824847
C       1.892294   -1.419698    0.661815
C       2.244722   -2.751840    1.276999
C       2.217874   -0.119606    1.399962
C       0.781632   -0.526787    1.177773
O       0.027598   -0.941757    2.279396
H       0.753474    2.109945    0.053889
H      -0.749152    1.915344   -0.859778
H      -0.780312    1.852118    0.905178
H      -0.967446   -0.430387   -0.038642
H       0.622547   -0.144921   -2.220414
H       2.537930   -1.737329   -1.491851
H       3.303305   -2.993360    1.128040
H       2.043436   -2.741779    2.351317
H       1.650836   -3.559339    0.835245
H       2.575069   -0.226915    2.420334
H       2.650126    0.704776    0.842470
H      -0.090765   -0.185298    2.863486
