20

C       0.073745    1.493216   -0.188446
C       1.317297    0.687773   -0.057999
C       2.181032    0.769178    1.201112
C       1.478144    0.126836    2.408054
C       0.790334   -1.170912    1.964313
C      -0.437339   -0.543892    1.285580
C      -0.832430    0.453052    2.375876
O       0.405562    0.969610    2.872565
N      -0.009038    0.044573   -0.001699
H      -0.156232    2.155324    0.641825
H      -0.260170    1.852828   -1.158921
H       1.864762    0.449540   -0.967894
H       3.119082    0.229422    1.025717
H       2.446950    1.804964    1.437580
H       2.179548   -0.001074    3.237350
H       1.395076   -1.770136    1.280502
H       0.497444   -1.787450    2.818518
H      -1.241672   -1.256230    1.080261
H      -1.453006    1.279722    2.017627
H      -1.383487   -0.061478    3.177030
