21

C       0.053130    1.600532   -0.244093
O       1.501161    1.439441    0.021988
C       1.123468    0.273813    0.863526
C       1.285034   -1.279055    0.924837
C      -0.333045   -1.244702    0.906814
C      -0.898519   -1.035364    2.310153
C      -0.497900    0.354964    2.835372
C       0.897125    0.761255    2.318236
C      -0.091776    0.066503    0.038855
H      -0.400846    2.288315    0.476530
H      -0.131488    1.938775   -1.266624
H       1.675401   -1.734102    0.013235
H       1.765183   -1.715851    1.806958
H      -0.812621   -2.076187    0.386516
H      -1.989643   -1.133711    2.300128
H      -0.521081   -1.829082    2.966892
H      -1.229537    1.082696    2.467655
H      -0.542534    0.397334    3.928201
H       1.682571    0.334130    2.953234
H       1.018184    1.846274    2.355751
H       0.263177   -0.350822   -0.909391
