19

C       0.156490    1.580114   -0.118323
C       0.108360    0.053756    0.014962
C       0.880545   -0.705975   -1.097640
C       1.562036   -1.903313   -0.402027
O       2.915851   -2.072554   -0.874861
C       3.241271   -3.216247   -1.500168
O       4.333638   -3.432325   -1.933055
C       1.540141   -1.527328    1.055506
C       0.750047   -0.480032    1.277144
H       1.190271    1.940947   -0.095382
H      -0.294651    1.905872   -1.061218
H      -0.389265    2.065853    0.697400
H      -0.948330   -0.252066    0.001423
H       0.245329   -1.006737   -1.934336
H       1.675165   -0.067484   -1.496245
H       1.027024   -2.847765   -0.579373
H       2.393057   -3.927081   -1.566278
H       2.087870   -2.093415    1.799619
H       0.546387   -0.047947    2.251647
