18

C      -0.005233    1.515037    0.029509
C       0.008466    0.015000    0.009846
C      -0.902385   -0.853577    0.836479
C       0.588582   -0.969015    1.013075
C       1.303416   -1.746073   -0.134049
C       0.376229   -2.221268   -1.235428
C       0.694062   -0.763655   -1.152255
C       2.654919   -2.175545   -0.039103
N       3.757958   -2.517956    0.055234
H       0.984936    1.925820   -0.199012
H      -0.710442    1.916336   -0.708579
H      -0.303902    1.889867    1.013248
H      -1.388482   -0.320713    1.649044
H      -1.515909   -1.647927    0.426650
H       1.088496   -0.766681    1.951111
H       0.887808   -2.746177   -2.035779
H      -0.600335   -2.627896   -1.002439
H       1.236495   -0.253826   -1.938022
