18

C      -0.064175    1.557285    0.173350
C      -0.135369    0.049803    0.362743
C      -1.328605   -0.701707   -0.094194
N      -0.038377   -0.849427   -0.794228
C       1.316845    2.058826   -0.084387
C       1.921347    2.636489   -1.158262
C       3.286236    2.870771   -0.783930
C       3.406816    2.416326    0.488355
O       2.218734    1.920282    0.931066
H      -0.696583    1.851152   -0.672164
H      -0.477734    2.047873    1.065047
H       0.404867   -0.314095    1.233933
H      -1.663105   -1.585607    0.441502
H      -2.125148   -0.140242   -0.577454
H      -0.043181   -0.304170   -1.653893
H       1.452770    2.872330   -2.101223
H       4.063945    3.317067   -1.383412
H       4.221795    2.373072    1.191651
