17

N       0.012028    1.422928   -0.128984
C       0.005367    0.017016   -0.060918
C      -1.190089   -0.700541    0.006897
C      -1.180577   -2.093644    0.000372
C       0.005330   -2.821722   -0.066515
N       0.036968   -4.226384   -0.131754
C       1.203850   -2.091907   -0.127729
O       2.358409   -2.832499   -0.177753
C       1.205116   -0.703245   -0.127375
H       0.842871    1.842904    0.265787
H      -0.811134    1.843466    0.280663
H      -2.135352   -0.169396    0.059827
H      -2.122232   -2.633128    0.049599
H      -0.712514   -4.666100    0.384864
H       0.932063   -4.602976    0.149956
H       3.113182   -2.236855   -0.202315
H       2.152808   -0.171239   -0.182463
