16

O      -0.061982    1.409522   -0.053625
C       0.025257   -0.011646    0.054268
C      -1.406303   -0.517912   -0.009705
O      -2.182112    0.078528    1.002466
C      -2.115434   -0.508249   -1.425930
C      -2.255701   -2.029555   -1.302174
O      -0.931994   -2.564985   -1.143222
C      -1.598277   -2.046042    0.012303
H       0.800343    1.787174    0.139297
H       0.617581   -0.448336   -0.758085
H       0.468813   -0.306748    1.017003
H      -1.921715    1.009300    1.011791
H      -3.068926    0.017770   -1.351944
H      -1.544551   -0.151124   -2.285962
H      -3.005423   -2.692246   -1.717874
H      -1.716312   -2.690398    0.875992
