21

C       0.050008    1.215765    0.374801
O       0.025855   -0.102035   -0.125737
C      -1.251420   -0.684915   -0.094089
C      -1.374279   -2.085880   -0.654828
C      -1.069763   -3.069675    0.479070
C      -2.431559   -2.429100    0.377313
C      -1.811095   -1.262987    1.243689
C      -0.707939   -2.251619    1.723349
C      -1.033209   -2.951088    3.036998
H       1.072179    1.587316    0.270013
H      -0.627059    1.876589   -0.189665
H      -0.234129    1.261783    1.436978
H      -1.991099   -0.014039   -0.558788
H      -1.336982   -2.389174   -1.693034
H      -0.802545   -4.095519    0.255532
H      -3.429405   -2.822703    0.259040
H      -2.343516   -0.633289    1.954779
H       0.303851   -1.831611    1.746423
H      -2.050664   -3.357608    3.027627
H      -0.343265   -3.781454    3.223929
H      -0.953317   -2.257754    3.881685
