17

N      -0.201781   -1.135746    0.009782
C      -0.116644    0.016745    0.047386
C       0.007423    1.454075    0.042700
N       0.643740    2.076093    1.225779
C       1.343662    2.122086   -0.053162
C       2.677356    1.385947   -0.178426
C       3.418651    2.230586   -1.227183
O       2.900058    3.550677   -1.076327
C       1.509479    3.411597   -0.870651
H      -0.835670    1.963590   -0.418854
H       0.179844    2.959304    1.429169
H       3.188948    1.415454    0.786836
H       2.559779    0.340271   -0.471444
H       4.498506    2.277627   -1.074887
H       3.224169    1.856353   -2.244916
H       0.974778    3.328291   -1.831798
H       1.145051    4.302115   -0.347845
