18

N      -0.111972    1.190203   -0.159818
C      -0.079711   -0.056559   -0.035175
O       1.006122   -0.916024    0.115206
C       0.120994   -2.047376    0.258703
C       0.337424   -3.464675   -0.220706
C      -0.623520   -3.904090    0.940420
C      -0.488490   -2.495079    1.617310
C      -1.678171   -1.518008    1.428770
C      -1.121445   -1.156996    0.010782
H       0.827787    1.590190   -0.135701
H       0.064919   -3.710509   -1.250244
H       1.362399   -3.798521   -0.033376
H      -1.638708   -4.124500    0.601790
H      -0.268024   -4.740776    1.542703
H       0.073355   -2.480376    2.551135
H      -2.665443   -1.986672    1.415782
H      -1.701915   -0.674355    2.121789
H      -1.775037   -1.236618   -0.856993
