21

C       0.059795    1.527214    0.079791
C       0.015291    0.009487   -0.013466
C       0.680653   -0.538053   -1.282935
C       0.682774   -2.075551   -1.274599
C       1.243819   -2.578953    0.039614
C       1.853075   -3.906404    0.161498
O       2.671268   -2.736279    0.087957
C       0.626900   -1.905032    1.248852
O       0.673405   -0.494514    1.146819
H       1.096616    1.877165    0.071615
H      -0.468019    1.981168   -0.764254
H      -0.408191    1.865591    1.007954
H      -1.038788   -0.326760    0.004268
H       0.161328   -0.158666   -2.169869
H       1.712727   -0.169750   -1.319969
H      -0.345531   -2.445703   -1.386539
H       1.269652   -2.478001   -2.105469
H       1.856243   -4.419927    1.123044
H       1.888567   -4.561519   -0.708766
H      -0.417995   -2.247313    1.360161
H       1.179994   -2.173187    2.152689
