23

C      -0.313429    1.445841    0.194554
C       0.205310    0.042346   -0.139670
C       0.841119   -0.632495    1.062287
C       0.107535   -1.305321    2.189826
C      -1.100425   -2.100236    1.680295
C      -0.119956   -2.982600    0.821581
C      -0.007908   -4.412214    1.345209
O      -0.301174   -2.986384   -0.587384
C       1.051542   -2.109222    1.274613
H       0.489966    2.089426    0.571417
H      -0.741270    1.931850   -0.688105
H      -1.090024    1.406884    0.966376
H      -0.598462   -0.575918   -0.543527
H       0.955284    0.106516   -0.938356
H       1.700080   -0.075507    1.439074
H       0.264805   -1.028753    3.225333
H      -1.611987   -2.674246    2.456989
H      -1.844558   -1.534118    1.112676
H      -0.938706   -4.964871    1.164011
H       0.808290   -4.936594    0.837749
H       0.184957   -4.428627    2.421716
H      -1.009950   -3.605115   -0.795197
H       2.035634   -2.509812    1.494721
