19

O      -0.032371    1.471848   -0.101346
C      -0.058207    0.074610   -0.012027
C      -0.461481   -0.654189    1.243196
C      -1.242560    0.087404    2.332315
C      -2.659148    0.358595    1.787175
O      -3.728198    0.061660    2.640415
C      -2.860841    1.375142    0.698756
C      -2.693781   -0.102058    0.352691
C      -1.351910   -0.697429   -0.007253
H       0.711985    1.781912    0.425990
H       0.738772   -0.404712   -0.583399
H       0.136949   -1.506549    1.548001
H      -1.347835   -0.556973    3.209303
H      -0.738390    1.005176    2.659166
H      -3.942250    0.859161    3.135901
H      -3.876582    1.747450    0.603676
H      -2.077359    2.073363    0.446134
H      -3.570366   -0.616775   -0.022670
H      -1.379090   -1.576566   -0.641695
