21

C       0.279015    0.804360   -0.787294
O      -0.017289   -0.490272   -0.313117
C      -1.331680   -0.629227    0.240944
C      -2.394822   -0.632004   -0.845334
C      -2.715347   -1.879390   -1.189603
C      -1.914862   -2.892961   -0.393564
O      -0.836891   -3.414240   -1.166909
C      -1.454783   -2.052831    0.828672
C      -0.229472   -2.581964    1.566126
H       1.326585    0.802974   -1.098627
H      -0.343317    1.087766   -1.648249
H       0.145159    1.561154    0.001053
H      -1.480250    0.156802    0.996708
H      -2.782140    0.271779   -1.302054
H      -3.395263   -2.168152   -1.983427
H      -2.497951   -3.768784   -0.092773
H      -0.295863   -2.653942   -1.418013
H      -2.305714   -2.018091    1.520062
H       0.632590   -2.658852    0.903074
H       0.038956   -1.923780    2.398935
H      -0.431921   -3.577599    1.973867
