16

C      -0.265447    1.329532   -0.156490
N       0.088686   -0.070362    0.037276
C       0.664121   -0.763289   -1.005067
C       0.750851   -2.112080   -1.225698
C       0.198348   -3.277727   -0.476233
O      -1.090252   -2.981610    0.058006
O       1.461684   -2.292457   -2.353728
N       1.815435   -1.019814   -2.829028
N       1.339079   -0.152495   -2.035258
H       0.624871    1.896354   -0.436230
H      -1.024610    1.487159   -0.937169
H      -0.644237    1.725171    0.788358
H      -0.605814   -0.627416    0.515850
H       0.188270   -4.164556   -1.123494
H       0.819637   -3.515487    0.394869
H      -1.693073   -2.864963   -0.684909
