20

C      -0.059802    1.516073   -0.002173
C       0.035914   -0.000007    0.018575
C      -1.166873   -0.682633   -0.608393
C       1.379974   -0.651588   -0.142630
C       0.703639   -0.687875    1.223746
C       1.315217    0.088762    2.391597
O       2.386205   -0.605256    2.997227
C       0.168980   -1.952051    1.665251
N      -0.234187   -2.953926    2.083692
H       0.845420    2.006729    0.360658
H      -0.222404    1.855339   -1.031210
H      -0.905175    1.869429    0.598232
H      -1.261302   -0.381556   -1.657502
H      -1.087315   -1.771554   -0.574264
H      -2.091642   -0.398930   -0.094285
H       1.445274   -1.580229   -0.698439
H       2.261995   -0.023088   -0.210329
H       1.735924    1.028818    2.030434
H       0.527719    0.332193    3.120303
H       2.037131   -1.417272    3.382393
