15

C      -0.054560    1.566405   -0.039648
C       1.188201    2.067696   -0.049684
C       2.169060    0.922095    0.000329
C       2.086658    0.062505    1.294592
C       0.708441   -0.493410    1.305744
C       0.034715    0.061168    0.017590
C       1.414187   -0.294763   -0.597738
N       1.797823   -1.222252    0.579941
H      -0.978309    2.131133   -0.006064
H       1.461982    3.115469   -0.025773
H       3.185507    1.099954   -0.348261
H       2.726858    0.101092    2.167953
H       0.232858   -0.904882    2.188137
H      -0.825404   -0.517923   -0.315820
H       1.539043   -0.624963   -1.628323
