16

C      -0.046931    1.578053    0.060788
C       0.000733    0.038630    0.003117
C       0.675909   -0.466411   -1.182591
C       1.240542   -0.870426   -2.174467
C       1.874399   -1.324194   -3.288236
C       2.438011   -1.727468   -4.278616
C       3.120439   -2.196042   -5.478713
C       3.188759   -3.661388   -5.572449
N       3.250500   -4.810784   -5.660589
H       0.962174    1.997809    0.066563
H      -0.578354    1.982743   -0.804276
H      -0.563072    1.903758    0.968217
H       0.506466   -0.349280    0.896846
H      -1.019926   -0.364231    0.034024
H       2.616748   -1.819284   -6.379095
H       4.145453   -1.803257   -5.516024
