20

C       0.051259    1.483949    0.026661
C       0.028269   -0.026095   -0.003654
C      -1.270174   -0.848020   -0.195682
N      -0.424745   -1.958498   -0.741033
C       0.594347   -2.211332    0.337623
C       1.778929   -1.683793   -0.521019
C       2.272652   -0.830740    0.660264
C       0.782222   -0.818158    1.084164
C       0.604033   -0.914926   -1.179837
H       1.074050    1.874267    0.059801
H      -0.435549    1.905947   -0.859480
H      -0.476680    1.866225    0.908363
H      -1.873103   -1.098099    0.685084
H      -1.918268   -0.457444   -0.986984
H       0.560313   -3.147020    0.893164
H       2.421785   -2.305868   -1.140870
H       2.891523   -1.416466    1.346291
H       2.764018    0.126397    0.456650
H       0.480290   -0.656226    2.119272
H       0.580079   -0.559802   -2.210277
