23

C      -0.092178    1.544737    0.082486
C      -0.049442    0.047016   -0.028177
C      -0.033792   -0.613580   -1.185640
C       0.036817   -2.114865   -1.265523
C       0.497185   -2.740531    0.067114
C       0.084526   -4.209158    0.152617
C       2.017665   -2.601619    0.252074
O      -0.208893   -2.106155    1.144823
C      -0.006004   -0.714499    1.272564
H       0.765981    1.928867    0.649487
H      -0.083715    2.017719   -0.903051
H      -0.991447    1.881160    0.614740
H      -0.077650   -0.063423   -2.123420
H      -0.947355   -2.521518   -1.537621
H       0.719656   -2.418458   -2.069526
H       0.502876   -4.777633   -0.683772
H       0.438056   -4.654169    1.087295
H      -1.005200   -4.294747    0.124014
H       2.354270   -1.571866    0.103710
H       2.302846   -2.920402    1.259181
H       2.547558   -3.230913   -0.469646
H       0.946414   -0.496800    1.790900
H      -0.802572   -0.360005    1.939994
