21

C      -0.075415    1.584860   -0.009532
C       0.047282    0.065808   -0.013705
O      -1.286117   -0.451237   -0.009079
C       0.739042   -0.449846   -1.286128
O       0.805017   -1.866875   -1.243019
C       1.773075   -2.323873   -0.303700
C       1.620868   -1.707688    1.085784
C       2.260067   -0.373770    1.395806
C       0.768055   -0.461826    1.222435
H       0.910074    2.058513    0.008245
H      -0.618252    1.925881   -0.896378
H      -0.631992    1.911823    0.873528
H      -1.200097   -1.390403   -0.218599
H       0.126515   -0.189483   -2.153562
H       1.741501   -0.013820   -1.421234
H       1.638379   -3.407540   -0.251854
H       2.781464   -2.131350   -0.704699
H       1.577316   -2.424628    1.899150
H       2.646654   -0.207060    2.395303
H       2.850517    0.093805    0.613183
H       0.163090   -0.375176    2.119849
