15

C      -0.018352    1.451507    0.144001
C      -0.007835   -0.031166   -0.046308
N      -0.088761   -0.604168   -1.172478
C      -0.074965   -2.035224   -1.251099
O      -0.159600   -2.582786   -2.329368
C       0.038144   -2.729106    0.018369
C       0.129562   -2.027462    1.169804
N       0.308936   -2.514934    2.436141
O       0.102652   -0.669460    1.174810
H       0.900774    1.777801    0.641226
H      -0.104621    1.935572   -0.827242
H      -0.857357    1.748163    0.781740
H       0.054048   -3.810907    0.024978
H       0.082882   -3.487673    2.570804
H       0.012933   -1.905949    3.184018
