16

C      -0.135566    1.539620   -0.169139
C       0.192293    0.077070   -0.001926
N       1.389183   -0.328891    0.061103
N      -0.978081   -0.725662    0.069574
C      -1.010708   -2.102731    0.221848
O      -0.035146   -2.805117    0.314481
N      -2.332439   -2.593935    0.256441
C      -2.728805   -3.922850    0.397818
O      -2.017590   -4.878988    0.514760
H       0.795326    2.102262   -0.217633
H      -0.707960    1.714655   -1.087919
H      -0.734312    1.909901    0.671587
H       1.425603   -1.342516    0.174137
H      -1.852180   -0.228923    0.001231
H      -3.090680   -1.933456    0.171525
H      -3.836775   -3.980499    0.387310
