13

O      -0.028007    0.014994    0.305073
C       0.000916    1.178986    0.040871
O      -1.120905    1.928794   -0.158390
C      -0.819764    3.228997   -0.684683
C       0.694906    3.374655   -0.607074
O       1.152885    3.201461    0.742277
C       1.205379    2.071513   -0.137705
C       1.389212    4.292307   -1.455958
C       1.927894    5.081443   -2.184168
H      -1.170690    3.285556   -1.719444
H      -1.333121    3.979658   -0.078591
H       2.180544    1.656608   -0.363108
H       2.417492    5.775636   -2.822644
