23

C      -0.049354    1.632791   -0.030929
C       0.012361    0.103783    0.010818
C       0.684520   -0.492378   -1.229394
C       0.726602   -2.027608   -1.210191
O      -0.614217   -2.490836   -1.203451
C      -0.757945   -3.877954   -0.944318
C      -2.240508   -4.208479   -0.939281
C       1.487190   -2.558693   -2.351506
C       2.107032   -2.981386   -3.291062
H       0.952927    2.071476   -0.094633
H      -0.617397    1.982018   -0.900332
H      -0.532178    2.035423    0.864916
H       0.559122   -0.217186    0.907885
H      -0.996393   -0.311245    0.099101
H       0.153438   -0.181976   -2.136731
H       1.712899   -0.124435   -1.320855
H       1.228353   -2.356838   -0.282383
H      -0.231012   -4.463461   -1.711863
H      -0.300478   -4.125842    0.028363
H      -2.762972   -3.631226   -0.170973
H      -2.688670   -3.972906   -1.908650
H      -2.391013   -5.273094   -0.736611
H       2.656167   -3.357584   -4.118672
