19

O      -0.042146   -0.112896   -0.105670
C      -0.016254    1.100457   -0.110869
C       1.289768    1.876977   -0.265864
C       2.518882    1.015706   -0.123092
C       3.828673    1.595573    0.193835
O       3.069671    0.913888    1.192732
C      -1.257742    1.916835    0.005181
C      -2.538689    1.329927   -0.571368
C      -2.362053    1.374926    0.905449
H       1.264904    2.350379   -1.259202
H       1.320513    2.696140    0.461880
H       2.481603    0.070657   -0.661323
H       4.737621    1.091974   -0.132562
H       3.922885    2.672687    0.331665
H      -1.134611    2.993250   -0.038025
H      -3.229239    2.021020   -1.040660
H      -2.430475    0.367198   -1.057329
H      -2.134507    0.443808    1.411288
H      -2.925076    2.099010    1.482717
