16

C       0.121532    1.529567   -0.027174
C      -0.018744   -0.006059   -0.007646
N      -1.398169   -0.441109    0.012149
C      -2.159862   -0.379276    1.132073
O      -1.800545    0.106945    2.185872
C       0.654517   -0.638982   -1.222372
O       0.033815   -1.274695   -2.049817
C       2.083011   -0.431079   -1.333932
C       3.273458   -0.273200   -1.413046
H       1.174288    1.822635   -0.031871
H      -0.369268    1.949620   -0.909874
H      -0.354656    1.927811    0.870116
H       0.490504   -0.377073    0.892264
H      -1.717201   -0.940208   -0.806778
H      -3.163634   -0.820819    0.978058
H       4.325361   -0.139296   -1.494329
