12

O       0.379560    0.091635   -0.191806
C       0.431788    1.277565   -0.284074
O       0.673275    2.076715    0.782350
C       0.764284    3.484577    0.530547
C       2.125343    3.916278    0.250459
C       3.249249    4.288027    0.014892
C       4.604678    4.700891   -0.262327
O       4.933454    5.844057   -0.473585
H       0.280574    1.845800   -1.222495
H       0.103122    3.771471   -0.298377
H       0.389560    3.976359    1.432887
H       5.337279    3.869645   -0.266742
