17

O       0.505964    0.396312    0.967087
C      -0.150898   -0.325714   -0.038309
C      -1.649760    0.094725   -0.130607
O      -2.046293    0.514591   -1.424954
C      -2.243343   -0.536299   -2.344812
C      -1.046936   -1.488436   -2.407524
O       0.181411   -0.755421   -2.467784
C       0.587309   -0.093848   -1.370904
O       1.549175    0.628503   -1.419126
H       1.221417    0.873732    0.514726
H      -0.082641   -1.401042    0.193853
H      -2.304520   -0.710671    0.234164
H      -1.764371    0.961606    0.522254
H      -3.144810   -1.123639   -2.101872
H      -2.395214   -0.053727   -3.313975
H      -1.035029   -2.179141   -1.557260
H      -1.080980   -2.086623   -3.320509
