16

C       0.131406    1.474683   -0.221605
O       1.503959    1.355713    0.272518
C       1.152382    0.155378    1.035705
C       1.565127   -1.241285    0.546333
C       0.306549   -2.117206    0.883022
C      -0.860240   -1.237538    0.488966
N      -0.231846   -2.149814   -0.516707
C       0.765624   -1.014006   -0.764976
C      -0.055965    0.003275    0.104853
H      -0.450096    2.174182    0.393921
H       0.095587    1.778864   -1.272371
H       1.082835    0.366111    2.107815
H       2.548185   -1.701017    0.635637
H       0.233454   -2.973091    1.543480
H      -1.873695   -1.374717    0.845560
H       1.148829   -0.822751   -1.763536
