17

O       0.468243    1.253484   -0.305282
C       0.124672    0.023790    0.244442
C      -0.476387   -0.072441    1.670467
C      -1.380358   -1.228563    1.173111
C      -1.134756   -0.763894   -0.307179
C      -2.155501    0.128096   -0.805060
C      -2.969716    0.938800   -1.186992
C      -3.962170    1.865012   -1.665079
O      -4.011130    3.033927   -1.354298
H      -0.325682    1.802211   -0.338067
H       1.006211   -0.615955    0.146290
H       0.208880   -0.268012    2.497178
H      -1.064502    0.820984    1.900997
H      -0.935891   -2.212284    1.338894
H      -2.416416   -1.243197    1.510605
H      -0.926776   -1.552649   -1.035097
H      -4.702588    1.420379   -2.360448
