16

O      -0.039588   -0.008438    0.063676
C      -0.066215    1.195053    0.067927
C      -1.353698    2.005921    0.104066
N      -1.772971    2.383868   -1.253053
C      -0.691887    2.861324   -2.124759
C       0.274180    3.786825   -1.397846
O       1.335969    3.155310   -0.656191
C       1.273255    1.977696    0.003789
O       2.246323    1.553454    0.558211
H      -2.136848    1.396156    0.558448
H      -1.223265    2.907518    0.714398
H      -2.219154    1.583012   -1.686993
H      -0.106168    2.053155   -2.594145
H      -1.145564    3.435949   -2.940618
H       0.806372    4.396796   -2.130504
H      -0.271864    4.463691   -0.730895
