19

C      -0.073063    1.629469    0.091632
N       0.000818    0.186066    0.087170
C      -1.227370   -0.582490    0.351541
C      -0.395683   -1.593302    1.203301
C      -0.085745   -2.857571    0.553809
N       0.167184   -3.867318    0.050645
C       0.718975   -0.528083    1.141500
C       2.191856   -0.702838    1.265428
C       1.422124    0.060437    2.333512
H       0.926752    2.056193   -0.038770
H      -0.684154    1.961717   -0.753646
H      -0.510293    2.045981    1.017681
H      -1.960840   -0.050757    0.976341
H      -1.723387   -0.976437   -0.539261
H      -0.794096   -1.787662    2.200642
H       2.571501   -1.691487    1.501368
H       2.820081   -0.130245    0.590754
H       1.550679    1.136975    2.370840
H       1.281174   -0.404105    3.304544
