12

O      -0.114711    1.227561    0.150062
C       0.063294   -0.079696    0.009478
N       1.186090   -0.744239   -0.028464
C       0.721257   -2.041678   -0.014601
C      -0.609390   -2.081252    0.042527
O      -1.137418   -3.254723   -0.418286
C       0.050491   -4.087357   -0.295204
O       1.227239   -3.253473   -0.407685
O      -1.096183   -0.802459    0.006925
H       0.763136    1.626929    0.207939
H       0.042135   -4.541651    0.705642
H       0.049795   -4.830081   -1.091797
