21

C       0.032029    1.281141    0.353269
O      -0.038345   -0.016175   -0.208154
C      -1.315941   -0.565979   -0.178012
C      -1.815283   -1.164024    1.112357
C      -1.467485   -2.062260   -0.073420
C      -2.613042   -2.422474   -0.967976
C      -3.094747   -3.831719   -1.110502
C      -3.112294   -1.327200   -1.553971
C      -2.352535   -0.069827   -1.193028
H       1.078851    1.591150    0.311534
H      -0.573373    2.005896   -0.209898
H      -0.304029    1.287200    1.400075
H      -1.107725   -1.163132    1.935215
H      -2.858914   -1.059959    1.392806
H      -0.603506   -2.712166    0.015045
H      -3.401390   -4.246974   -0.142178
H      -3.943131   -3.899361   -1.796940
H      -2.298236   -4.484473   -1.489943
H      -3.974603   -1.316303   -2.212105
H      -3.005917    0.713591   -0.788736
H      -1.839952    0.361744   -2.064098
