18

C      -0.036879    1.550277   -0.008530
C       1.431588    2.060999    0.017926
C       2.345064    0.827481    0.021467
C       2.031658   -0.051373    1.233192
O       0.648310   -0.424621    1.210357
C       0.011819    0.016253    0.008790
C       0.808465   -0.494876   -1.192507
O       2.124953    0.070807   -1.171088
H      -0.597841    1.897023    0.863263
H      -0.567831    1.899044   -0.900300
H       1.660587    2.669174   -0.861051
H       1.627522    2.675846    0.902457
H       3.402635    1.103622    0.012665
H       2.653132   -0.956616    1.208530
H       2.239475    0.483777    2.169747
H      -0.989058   -0.422974    0.018850
H       0.882295   -1.590001   -1.152872
H       0.317890   -0.216621   -2.135189
