19

C      -0.137194    1.604490   -0.005228
C       0.044833    0.092301    0.035195
C      -1.284635   -0.618987    0.285010
N       0.684146   -0.542148   -1.207850
C       2.048819   -0.028413   -1.325372
C       1.805384   -1.093195   -0.318205
C       1.163899   -0.507219    0.882878
N       1.280653   -0.597323    2.139772
O       2.371785   -1.418402    2.491031
H       0.801847    2.145575   -0.139160
H      -0.813185    1.877028   -0.822489
H      -0.580579    1.947169    0.934412
H      -2.011789   -0.332141   -0.481138
H      -1.156542   -1.703493    0.245973
H      -1.678198   -0.350559    1.269273
H       2.535547   -0.336496   -2.246377
H       2.294011    0.978850   -1.003216
H       2.195186   -2.099415   -0.413905
H       2.332159   -1.406271    3.453174
