19

C       0.121169    1.417791    0.318422
C      -0.351085    0.103357   -0.322626
C       0.502048   -0.319089   -1.477481
C       0.138088   -0.492309   -2.788389
N       1.287263   -0.869205   -3.463136
C       2.289055   -0.895815   -2.537735
N       1.854288   -0.578044   -1.342455
O      -1.034996   -0.321020   -3.442319
C      -1.861016   -1.486165   -3.513429
H       1.161456    1.328743    0.642495
H       0.061624    2.244815   -0.396263
H      -0.492623    1.672588    1.188238
H      -0.348422   -0.686558    0.439495
H      -1.385861    0.206040   -0.668493
H       1.360152   -1.019310   -4.455505
H       3.305882   -1.152242   -2.796125
H      -2.772985   -1.189343   -4.035089
H      -1.367801   -2.291143   -4.073170
H      -2.110972   -1.851421   -2.511001
