13

N       0.188273    1.431594   -0.094671
C       0.020027    0.042952   -0.045932
C      -1.084629   -0.792810   -0.075656
O      -2.369532   -0.379137   -0.119174
N      -0.729303   -2.095077   -0.072357
C       0.601114   -2.095448   -0.033651
N       1.090502   -0.819878   -0.026858
C       1.443387   -3.229413    0.012835
N       2.166544   -4.134645    0.047809
H       0.307700    1.848341    0.824586
H      -0.613901    1.870631   -0.531575
H      -2.917740   -1.171784   -0.169014
H       2.059509   -0.544138   -0.046281
