27

C       0.019628    1.593939   -0.000718
C       0.018443    0.062496   -0.049662
C       0.751281   -0.465154   -1.293809
C       0.788051   -1.998299   -1.330738
C       1.403197   -2.572188   -0.046656
C       0.712855   -2.081169    1.248489
C      -0.694949   -2.693689    1.385488
C       1.548929   -2.522607    2.461820
C       0.641244   -0.534919    1.224536
H       1.043136    1.983625    0.058152
H      -0.446550    2.020926   -0.895365
H      -0.527188    1.966302    0.872418
H      -1.028432   -0.267597   -0.112893
H       0.278584   -0.072301   -2.202216
H       1.781156   -0.077619   -1.288565
H      -0.230056   -2.385126   -1.466860
H       1.361724   -2.341852   -2.199353
H       1.390690   -3.669056   -0.076093
H       2.461690   -2.278498   -0.006310
H      -0.638506   -3.787303    1.426018
H      -1.176970   -2.352563    2.308632
H      -1.354897   -2.429864    0.555024
H       2.564591   -2.114721    2.412842
H       1.096290   -2.180511    3.399587
H       1.628920   -3.614650    2.510376
H       1.663206   -0.138947    1.321865
H       0.092977   -0.180967    2.107718
