19

C      -0.080576    1.525979    0.029829
C       0.048406    0.038853    0.057961
C       1.225642   -0.788318   -0.368866
C       0.644242   -0.967075    1.023119
C       1.419510   -0.848623    2.300547
C      -0.700337   -1.697995    0.876867
O      -1.157831   -0.728403   -0.113284
C      -0.715428   -3.076659    0.416881
C      -0.716498   -4.222595    0.053366
H       0.880418    1.999590    0.250447
H      -0.400886    1.862916   -0.962619
H      -0.818984    1.871397    0.760082
H       1.103530   -1.555897   -1.127964
H       2.181311   -0.271908   -0.382471
H       2.183489   -0.068405    2.223836
H       0.768559   -0.597288    3.145688
H       1.933062   -1.787177    2.540676
H      -1.308863   -1.596933    1.785358
H      -0.721597   -5.233631   -0.271989
