16

C      -0.079169    1.469043    0.004499
C      -0.012791    0.016663   -0.015850
C       0.037314   -1.190858   -0.040442
C       0.121361   -2.593257   -0.061468
C       1.231210   -3.437542   -0.023169
N       2.574301   -3.056442   -0.024690
C       0.690272   -4.740744   -0.065455
N      -0.642582   -4.723702   -0.124644
N      -0.967327   -3.431275   -0.127751
H       0.665447    1.910862   -0.667335
H      -1.064751    1.818770   -0.322312
H       0.097723    1.870634    1.009093
H       2.706408   -2.101745    0.284185
H       3.167788   -3.677776    0.508440
H       1.219110   -5.682590   -0.055655
H      -1.933734   -3.156528   -0.168877
