19

C      -0.313252    1.498875   -0.040971
C       0.023304    0.011544   -0.080613
C       1.045903   -0.392293   -1.177675
N       1.876676   -1.374442   -0.476317
C       3.143741   -1.778038   -1.055365
C       1.621877   -1.197686    0.866228
C       2.368475   -1.853891    1.977951
O       3.288413   -2.627118    1.861199
N       0.618953   -0.454573    1.186445
H       0.592552    2.094126    0.112769
H      -0.779491    1.817424   -0.979210
H      -1.003828    1.711425    0.779091
H      -0.908607   -0.555860   -0.218842
H       0.583351   -0.825388   -2.069820
H       1.658526    0.467897   -1.497822
H       3.804250   -0.914637   -1.235601
H       3.645132   -2.474649   -0.386578
H       2.964907   -2.270338   -2.017028
H       1.965070   -1.548579    2.962375
