20

C       0.134023    1.592851   -0.022870
C       0.023750    0.054290   -0.039856
C      -1.439444   -0.449158    0.026921
C      -2.163120   -0.090861    1.328402
C      -3.575830   -0.707938    1.376115
C      -4.292837   -0.374743    2.605116
N      -4.843078   -0.099804    3.583379
C       0.684822   -0.494334   -1.223609
C       1.208831   -0.936966   -2.210937
H       1.178912    1.901938   -0.103346
H      -0.412389    2.026700   -0.866085
H      -0.271452    2.006886    0.904106
H       0.547686   -0.332338    0.846387
H      -1.990165   -0.045668   -0.832341
H      -1.432552   -1.538562   -0.095639
H      -1.588775   -0.450174    2.190269
H      -2.251524    0.993965    1.440887
H      -4.170131   -0.360891    0.522585
H      -3.517146   -1.799513    1.292849
H       1.682767   -1.331690   -3.075269
