15

C       0.182499    1.428558   -0.073168
C       0.028289   -0.082202    0.020047
O       0.812455   -0.778387   -0.976014
C       1.658334   -1.396021    0.020902
C       0.837289   -0.801298    1.172027
O       1.596694    0.004714    2.023851
C      -1.382446   -0.488562   -0.044344
N      -2.490697   -0.817481   -0.052142
H       1.228164    1.698118    0.082426
H      -0.138984    1.768739   -1.060758
H      -0.428403    1.930039    0.683440
H       1.663298   -2.486936   -0.062917
H       2.684009   -1.012945   -0.014078
H       0.230656   -1.528706    1.720126
H       1.065938    0.239521    2.791720
