17

C      -0.275524    1.496426    0.051021
O       1.051126    1.000073   -0.128861
C      -0.020663    0.049321   -0.003828
C      -0.027807   -0.879234    1.215110
C      -0.360584   -2.258835    0.637149
C       0.017311   -3.535565    1.261035
O      -1.330528   -3.068572    1.324046
C      -0.525242   -2.073145   -0.829975
C      -0.335730   -0.800793   -1.183695
H      -0.476528    1.963565    1.015106
H      -0.707814    2.008428   -0.808666
H       0.950360   -0.853674    1.702125
H      -0.784156   -0.597540    1.952154
H       0.181858   -4.418409    0.643302
H       0.563936   -3.524013    2.203981
H      -0.779562   -2.895201   -1.487966
H      -0.382544   -0.395814   -2.187292
