21

C       0.221700    1.592633   -0.228459
C      -0.063115    0.114379    0.008165
C       0.899386   -0.840447   -0.754516
O       1.662818   -1.064008    0.448246
C       0.631207   -0.462561    1.257934
O      -1.439346   -0.211477    0.003128
C      -2.188043    0.215284   -1.096040
C      -2.181298   -0.579258   -2.380370
C      -3.373109   -0.624464   -1.444484
H       1.287749    1.787457   -0.080820
H      -0.034403    1.897276   -1.247523
H      -0.344824    2.210948    0.475539
H       0.407744   -1.757438   -1.102921
H       1.510503   -0.416243   -1.559099
H       1.035488    0.247368    1.987811
H       0.010641   -1.210874    1.766987
H      -2.298655    1.294642   -1.178360
H      -2.270761   -0.043269   -3.319115
H      -1.557967   -1.464251   -2.421542
H      -3.505789   -1.529628   -0.863232
H      -4.292179   -0.129065   -1.735774
