24

C      -0.193430    1.513787   -0.214910
C      -0.071992    0.012692   -0.012591
O      -1.365495   -0.551938   -0.039941
C      -1.369956   -1.950682    0.139778
C      -2.810169   -2.442333    0.088199
C      -2.918849   -3.957332    0.255555
N      -4.314916   -4.381216    0.239533
C      -4.879276   -4.691321   -1.069761
C      -4.562591   -5.776660   -0.100722
H       0.794843    1.983068   -0.199618
H      -0.668264    1.733768   -1.175328
H      -0.802363    1.959013    0.577025
H       0.556167   -0.434546   -0.802574
H       0.421068   -0.209009    0.949829
H      -0.766006   -2.439634   -0.645634
H      -0.906338   -2.215219    1.106941
H      -3.390778   -1.947876    0.873596
H      -3.250683   -2.142158   -0.869613
H      -2.327108   -4.466234   -0.529797
H      -2.491800   -4.260868    1.219924
H      -5.905372   -4.374749   -1.233080
H      -4.230088   -4.600054   -1.939958
H      -3.704018   -6.407502   -0.327621
H      -5.352737   -6.268458    0.459571
