19

C       0.394550    1.239410   -1.377682
C      -0.470407    0.182921   -0.736115
O      -0.830488    0.254422    0.423275
C      -0.832493   -1.025822   -1.593296
C       0.050190   -2.222693   -1.242391
C       0.038712   -2.650995    0.227069
O      -1.241299   -2.560778    0.811966
C       0.408413   -3.173246   -2.303143
O       1.359518   -2.211633   -1.826347
H       1.293418    0.761645   -1.785569
H      -0.132819    1.692461   -2.225344
H       0.664334    2.008829   -0.653892
H      -1.871404   -1.295831   -1.383915
H      -0.722529   -0.800866   -2.656672
H       0.367956   -3.691833    0.303327
H       0.776519   -2.036324    0.763003
H      -1.392985   -1.617284    0.976703
H       0.624567   -4.208359   -2.043093
H       0.055472   -3.015220   -3.321685
