18

C      -0.118740    1.584392   -0.000876
C      -0.059105    0.042511    0.000608
C      -1.405483   -0.524475    0.009172
C      -2.528535   -0.950914    0.002369
C       0.751962   -0.475175   -1.202627
C       2.268224   -0.175389   -1.220936
O       2.560109   -1.605009   -1.225602
C       1.215202   -1.923703   -1.180552
N       0.646413   -3.037832   -1.133077
H       0.887235    2.014234    0.034231
H      -0.620876    1.948569   -0.902065
H      -0.676650    1.945223    0.866333
H       0.458080   -0.282125    0.914361
H      -3.509368   -1.357711    0.000670
H       0.240693   -0.213923   -2.132780
H       2.663407    0.311005   -2.115537
H       2.671051    0.299343   -0.321533
H       1.325464   -3.801203   -1.124994
