15

C       0.540848    1.505223    0.158650
C       0.040741    0.055931    0.115865
C       0.269542   -0.567722   -1.241308
O       1.578897   -1.019723   -1.559736
C       0.540601   -2.006061   -1.495588
C       0.645540   -2.998688   -0.384635
O       0.104525   -4.074879   -0.410714
H       1.615869    1.549522   -0.039446
H       0.034858    2.121164   -0.592636
H       0.355682    1.953402    1.138678
H       0.541867   -0.533632    0.888632
H      -1.034155    0.021838    0.333237
H      -0.219201   -0.041907   -2.065857
H       0.225691   -2.430795   -2.447984
H       1.278486   -2.672122    0.468060
