14

C      -0.239197    1.480099    0.166433
C       0.320370    0.089818   -0.159405
C       0.978875   -0.541690    1.039971
O       0.125000   -1.060985    2.062313
C       0.929604   -1.991355    1.336948
C       0.233943   -2.913448    0.464221
N      -0.296261   -3.666492   -0.234264
H       0.551227    2.159956    0.502284
H      -0.710078    1.923775   -0.714781
H      -0.990177    1.417992    0.959337
H      -0.478114   -0.566539   -0.519088
H       1.064847    0.159168   -0.962445
H       1.851065   -0.014444    1.432595
H       1.739538   -2.446135    1.904737
