14

O       0.162461    1.426712    0.082487
C       0.056634    0.021162    0.050587
C      -1.430718   -0.442870   -0.104978
N      -1.029811   -1.090227   -1.366539
C       0.246538   -0.557971   -1.372960
N       1.224768   -0.439353   -2.161172
C       0.819773   -0.633895    1.104613
C       1.457899   -1.167258    1.971942
H       1.019320    1.645055   -0.306267
H      -1.805517   -1.131968    0.654265
H      -2.096935    0.416734   -0.219852
H      -1.614911   -1.281214   -2.166963
H       1.037884   -0.833157   -3.084343
H       2.028654   -1.636259    2.735136
