13

C      -0.002266    1.532167    0.096743
C       0.025759    0.047114   -0.040727
C      -0.018110   -0.813110   -1.129899
C      -0.111261   -0.463174   -2.549337
O      -0.146524   -1.250034   -3.463756
N       0.040922   -2.107325   -0.669455
N       0.117315   -2.099602    0.615839
N       0.108922   -0.796176    1.009291
H       0.904368    1.902940    0.586875
H      -0.071947    2.008276   -0.882117
H      -0.861514    1.859955    0.691674
H      -0.149296    0.634360   -2.737133
H       0.162168   -0.579927    1.993026
