13

C      -0.069512    1.453234    0.003357
N      -0.036452   -0.001019    0.055903
N       0.067408   -0.659210   -1.165625
N       0.126287   -1.902213   -1.177874
C       0.057058   -2.676734    0.044141
N      -0.065733   -3.938055   -0.004966
N       0.147715   -1.996593    1.261492
C       0.084210   -0.736171    1.192726
F       0.153846    0.003295    2.285427
H       0.835828    1.884092    0.439106
H      -0.133929    1.724272   -1.050318
H      -0.942545    1.835368    0.537130
H      -0.093436   -4.227021   -0.983855
