21

C      -0.017350    1.512655   -0.089894
C       1.361800    2.210116   -0.123170
C       2.328422    1.923865    1.021033
N       1.858733    1.095855    2.143961
C       2.879483    0.553431    1.234695
C       2.526801   -0.546894    0.280124
N       1.763346   -1.724072    0.729778
C       1.154412   -0.790313   -0.242145
C      -0.043616    0.001708    0.242954
H      -0.653427    2.021550    0.642377
H      -0.482216    1.691647   -1.067448
H       1.873981    1.957363   -1.060926
H       1.184179    3.291373   -0.167534
H       2.995526    2.749578    1.263613
H       2.293737    1.386201    3.014481
H       3.894537    0.490517    1.624704
H       3.336281   -0.731250   -0.427265
H       2.105342   -2.557239    0.257528
H       1.111199   -1.125251   -1.278387
H      -0.085761   -0.121190    1.323819
H      -0.957250   -0.439970   -0.173537
