15

C      -0.521433    1.514572   -0.006742
C       0.184437    0.183442    0.011422
O       1.067098    0.062256   -1.131857
C       2.205696   -0.490309   -0.628074
C       3.394125   -1.010703   -1.005289
O       4.087388   -1.340362    0.138968
C       3.316806   -1.021157    1.235748
C       2.157033   -0.496890    0.782390
O       0.986246    0.051325    1.211633
H       0.211508    2.324120    0.022696
H      -1.120389    1.602629   -0.916593
H      -1.182318    1.594094    0.859998
H      -0.515383   -0.664775   -0.016671
H       3.889886   -1.208386   -1.938059
H       3.747165   -1.227689    2.198584
