21

C      -0.172205    1.525742   -0.009095
C       0.075951    0.040422   -0.105078
C       1.311455   -0.530749   -0.861852
C       1.147445   -1.767556    0.070255
C       2.313211   -2.668002    0.397602
C       0.549669   -0.789390    1.126550
O       0.103326   -2.582970   -0.489983
C      -1.156247   -1.952039   -0.437125
O      -1.092121   -0.565842   -0.685598
H       0.716655    2.038756    0.369606
H      -0.415902    1.933708   -0.994950
H      -1.011336    1.735251    0.661548
H       1.194680   -0.703843   -1.933098
H       2.225840    0.031605   -0.651029
H       3.158074   -2.080772    0.769135
H       2.033148   -3.401868    1.159706
H       2.634028   -3.212505   -0.495890
H       1.348443   -0.264688    1.655651
H      -0.182232   -1.152906    1.850867
H      -1.780621   -2.397670   -1.216655
H      -1.623162   -2.133542    0.544683
