21

C      -0.053683    1.456105   -0.181150
C      -0.049540   -0.060069    0.056421
C       0.769454   -0.449270    1.296350
C      -1.446793   -0.604794    0.164507
C      -2.606948   -0.274263    1.136142
C      -3.170705   -1.147665    0.001896
O      -2.392644   -0.344683   -0.979674
C      -1.942912   -2.089266    0.122790
O      -1.586597   -2.858035   -0.975566
H       0.962907    1.821268   -0.357328
H      -0.669858    1.714124   -1.046019
H      -0.453809    1.988014    0.689322
H       0.400236   -0.548900   -0.819144
H       0.794491   -1.534062    1.438737
H       1.801339   -0.099587    1.197132
H       0.350511    0.002570    2.202607
H      -2.570286   -0.695734    2.144247
H      -2.941945    0.762466    1.117784
H      -4.205775   -1.372946   -0.255217
H      -1.841936   -2.692550    1.027798
H      -1.715286   -2.271720   -1.736559
