21

C       0.187827    1.544802   -0.347167
C       0.039735    0.069723   -0.048986
O      -1.133457   -0.495128   -0.584341
C       1.251998   -0.831226    0.032320
C       0.418079   -0.538948    1.270693
C       0.977783    0.246839    2.436609
C       1.793923   -0.643327    3.395669
C       2.265798    0.123476    4.608101
O       3.414063    0.244219    4.949700
H       1.092503    1.967627    0.096682
H       0.250211    1.708466   -1.430235
H      -0.677314    2.101946    0.026536
H      -1.057776   -0.472197   -1.545186
H       1.173853   -1.818153   -0.409667
H       2.235039   -0.374395   -0.036761
H      -0.247226   -1.348839    1.560011
H       1.618694    1.059846    2.077442
H       0.157814    0.722092    2.991765
H       1.153444   -1.464222    3.750246
H       2.660579   -1.081118    2.892866
H       1.443872    0.603106    5.192333
