18

C      -0.065216    1.528354    0.025207
C       0.161494    0.044345   -0.006393
C       0.446049   -0.662059   -1.320137
O       1.055159   -1.917469   -0.975856
C       1.382174   -1.959420    0.349893
N       2.091360   -2.845768    0.901478
C       0.772016   -0.784099    1.051383
C       1.280572   -0.361916    2.394853
O      -0.661781   -0.778089    0.828246
H       0.788788    2.063002   -0.402724
H      -0.955647    1.792261   -0.555751
H      -0.218495    1.873482    1.049615
H      -0.466810   -0.866759   -1.888009
H       1.139643   -0.087260   -1.945614
H       2.410585   -3.533511    0.216643
H       2.338027   -0.088651    2.336945
H       0.708839    0.485958    2.777592
H       1.193911   -1.194709    3.097832
