18

C      -0.423414    1.442217   -0.229505
N      -0.048366    0.051725   -0.013808
C       0.113546   -0.395755    1.367608
C      -1.238495   -0.755050    2.009393
N      -1.723443   -1.957243    1.602651
O      -1.802459   -0.008129    2.788883
C      -0.025221   -0.897222   -1.000518
N      -0.087537   -0.424528   -2.301556
O       0.013558   -2.102491   -0.759843
H       0.451692    2.101504   -0.315957
H      -1.031448    1.535631   -1.131418
H      -1.026043    1.782294    0.616868
H       0.783072   -1.257665    1.371130
H       0.552439    0.414336    1.952589
H      -1.279682   -2.424290    0.819823
H      -2.665453   -2.199002    1.865952
H       0.357425    0.454357   -2.516109
H       0.089110   -1.154933   -2.974358
