14

C       0.120770    1.452264   -0.011465
C       0.038637    0.000814    0.006482
C      -0.031450   -1.201228    0.037669
C      -0.108226   -2.667200    0.029247
O      -1.408748   -3.183215    0.049934
C       0.616768   -3.134465   -1.244575
O       0.027361   -3.666345   -2.150571
C       2.059264   -2.870234   -1.307071
N       3.201843   -2.695108   -1.329489
H       1.164840    1.782556   -0.002533
H      -0.354865    1.865184   -0.907062
H      -0.375064    1.884451    0.864065
H       0.437388   -3.067258    0.896528
H      -1.644803   -3.377486   -0.869500
