23

C       0.052427    1.524595   -0.111604
C       0.033813    0.011116    0.011757
C      -1.179567   -0.641189   -0.626686
C       1.346117   -0.743115   -0.062327
C       0.596645   -0.661101    1.246776
C       1.171216    0.070540    2.435754
C       2.202052   -0.694008    3.303968
C       3.125318    0.502910    3.012976
O       2.160088    1.083526    2.111217
H       0.940687    1.958883    0.349163
H       0.030133    1.820406   -1.167456
H      -0.829743    1.966330    0.368187
H      -1.232972   -0.405320   -1.696386
H      -1.151441   -1.731180   -0.527378
H      -2.109034   -0.286946   -0.164641
H       1.375935   -1.690478   -0.591123
H       2.251934   -0.150718   -0.132986
H       0.069838   -1.561527    1.560335
H       0.361790    0.517533    3.031866
H       1.930491   -0.858173    4.347660
H       2.531754   -1.634926    2.859415
H       3.321207    1.158787    3.870985
H       4.074206    0.283443    2.510475
