16

C      -0.358490    1.122440   -0.116278
C       1.124902    1.047460    0.196166
C       0.343038   -0.200735   -0.039816
O       0.143846   -1.002280    1.104681
C      -0.882328   -1.870020    1.058214
C      -1.365437   -2.608647    2.092282
O      -2.383861   -3.383327    1.586761
C      -2.447295   -3.055370    0.286920
N      -1.585290   -2.165485   -0.094580
H      -1.021993    1.374559    0.702912
H      -0.677922    1.478117   -1.089262
H       1.840571    1.355548   -0.557364
H       1.424982    1.246998    1.218416
H       0.492365   -0.771791   -0.949382
H      -1.133376   -2.712125    3.135530
H      -3.196178   -3.552229   -0.309264
