17

O       0.276243    1.213485   -0.480673
C       0.022919   -0.032947    0.160220
C      -1.412959   -0.464383    0.122157
C      -2.102140   -0.960943   -1.139108
C      -1.968725   -1.917137    0.002223
O      -1.278390   -3.096978   -0.160444
C      -2.971092   -1.604060    1.089491
O      -2.260637   -1.157325    2.263031
C      -2.462274   -0.224156    1.190020
H      -0.208814    1.893104   -0.002206
H       0.633344   -0.765993   -0.378525
H       0.370637   -0.022433    1.204460
H      -3.071092   -0.569917   -1.436907
H      -1.429136   -1.161123   -1.967607
H      -0.917361   -3.346760    0.698782
H      -3.973719   -1.986930    1.239722
H      -3.026092    0.673345    1.418312
