23

C      -0.078532    1.544581   -0.013141
C      -0.016632    0.008599   -0.007694
C      -1.455399   -0.526605   -0.089359
C       0.894314   -0.556554   -1.105248
C       2.307565   -0.603114   -0.556047
C       2.251027   -0.103815    0.886037
C       0.808569   -0.583812    1.186432
C       0.936362   -2.082427    0.813341
C       1.466871   -1.868256   -0.602547
H       0.908581    2.009333   -0.046265
H      -0.632481    1.898494   -0.889807
H      -0.601157    1.918391    0.875129
H      -1.966693   -0.107457   -0.963172
H      -1.499770   -1.613436   -0.180455
H      -2.032203   -0.235371    0.796290
H       0.696715   -0.386587   -2.156843
H       3.174239   -0.471653   -1.190699
H       2.986001   -0.599484    1.529914
H       2.391603    0.974524    0.987166
H       0.422212   -0.363689    2.182429
H       1.656343   -2.600735    1.456331
H      -0.005668   -2.633478    0.854687
H       1.703498   -2.684932   -1.272051
