19

O      -0.266000    0.366098   -0.874259
C       0.201518    0.903945    0.094520
C       1.212187    2.043947    0.066961
C       1.362846    2.626250   -1.348005
C       2.553382    3.529059   -1.536105
C       2.973276    4.513552   -0.743196
C       2.388265    5.043916    0.536900
C       1.352855    4.276569    1.310534
C       0.876633    3.043565    1.148287
H      -0.075343    0.570125    1.122731
H       2.163901    1.553463    0.340294
H       1.419127    1.790643   -2.050619
H       0.437003    3.159049   -1.600488
H       3.125173    3.352942   -2.444875
H       3.853173    5.067998   -1.066382
H       3.217703    5.254828    1.231744
H       1.980287    6.047334    0.327615
H       0.971354    4.834629    2.164784
H       0.151832    2.698008    1.885180
