17

O      -0.320800    0.355206   -0.779996
C      -0.155925    1.388940   -0.201417
C      -1.105732    2.370976    0.517380
C       0.125308    3.264605    0.843333
C       1.086838    2.220003    0.144115
C       1.439480    3.284446   -0.947592
C       0.482926    4.267175   -0.258629
C      -0.298294    5.379696   -0.802535
O       0.858151    5.602708    0.018868
H      -1.908782    2.806820   -0.083679
H      -1.551328    1.903516    1.402053
H       0.250383    3.602666    1.870627
H       1.917549    1.705910    0.626818
H       2.476441    3.621879   -0.878899
H       1.224077    3.009108   -1.982993
H      -0.186897    5.659331   -1.849489
H      -1.251267    5.648924   -0.348039
