16

O       0.303129    0.922167    0.800788
C      -0.062944    0.147460   -0.329801
C      -1.382143   -0.476637   -0.211443
C      -2.479688   -0.965129   -0.114164
C      -3.791109   -1.590839    0.061790
O      -3.703414   -2.930201    0.510551
C      -4.661430   -0.724941    1.016797
C      -6.003364   -1.273711    1.189490
N      -7.071393   -1.694023    1.318922
H      -0.366817    1.603704    0.918555
H      -0.026355    0.739035   -1.258033
H       0.704573   -0.628726   -0.421428
H      -4.305383   -1.647415   -0.904360
H      -3.054872   -2.965532    1.222948
H      -4.168226   -0.659299    1.992841
H      -4.736262    0.294031    0.622763
