17

O      -0.105469   -0.069243   -0.257749
C      -0.062637    1.128955   -0.079405
N      -1.123723    1.964631    0.235962
C      -0.740781    3.363087    0.101557
C       0.785671    3.280427    0.307616
N       1.072591    1.931109   -0.153368
C       2.386221    1.326443   -0.040017
C       2.958975    1.398590    1.308086
C       3.418542    1.484317    2.415310
H      -2.039957    1.649851   -0.041164
H      -0.978210    3.764542   -0.893889
H      -1.223695    3.993374    0.852723
H       1.325252    4.032332   -0.276205
H       1.055518    3.405313    1.365580
H       2.260776    0.281303   -0.342081
H       3.073216    1.798870   -0.753779
H       3.828591    1.538483    3.393504
