19

O      -0.163577    0.025664   -0.054143
C       0.000174    1.217041    0.086256
C       1.279852    1.903850   -0.027088
C       1.869809    3.012605    0.877343
C       3.192912    2.245537    0.949019
C       2.704431    1.334775   -0.226420
C       3.165400    1.888168   -1.580853
C       2.577296    3.328171   -1.617386
C       1.491793    3.323895   -0.539236
H      -0.854974    1.891311    0.331522
H       1.370408    3.499015    1.707947
H       4.116079    2.814102    0.788899
H       3.276035    1.689536    1.885333
H       2.834579    0.262359   -0.093864
H       4.254477    1.875770   -1.688532
H       2.744562    1.283540   -2.391322
H       3.338761    4.085627   -1.403975
H       2.153163    3.569099   -2.595973
H       0.613608    3.949598   -0.660767
