14

O      -0.003951    0.008531   -0.053454
C      -0.016777    1.207002   -0.043082
N      -1.024765    2.140838   -0.048442
C      -0.157651    3.317434    0.029065
C       1.054190    2.337512    0.004806
C       1.969827    2.350782    1.234576
C       3.017512    1.332412    1.174120
N       3.864930    0.549417    1.121916
H      -2.028709    2.041359   -0.070760
H      -0.228558    3.992118   -0.829275
H      -0.263758    3.892447    0.955785
H       1.640958    2.393060   -0.914391
H       2.454759    3.329807    1.326881
H       1.382205    2.198990    2.147491
