25

C      -0.088385    1.546026    0.007385
C      -0.014495    0.091757   -0.018115
C       0.058357   -1.110164   -0.039960
C       0.110755   -2.568653   -0.064067
C      -1.293105   -3.206952    0.020739
C      -1.348463   -4.754510    0.002626
C      -0.591374   -5.348642    1.205216
C      -2.829921   -5.167333    0.095722
C      -0.759047   -5.313255   -1.306111
H       0.471432    1.960447    0.853447
H       0.325919    1.983997   -0.907760
H      -1.124339    1.891883    0.097614
H       0.616549   -2.896453   -0.980682
H       0.733394   -2.921153    0.767514
H      -1.776913   -2.846611    0.936738
H      -1.893774   -2.821952   -0.812293
H      -0.974137   -4.948861    2.150971
H      -0.706816   -6.437697    1.233899
H       0.481631   -5.137221    1.161000
H      -3.405711   -4.769479   -0.747211
H      -2.934906   -6.257805    0.087380
H      -3.287824   -4.794337    1.018520
H       0.310714   -5.101170   -1.398980
H      -0.879339   -6.401289   -1.349743
H      -1.263353   -4.887803   -2.181012
