20

C       0.222419    1.450998   -0.191206
C      -0.138742    0.004549    0.166332
C       0.631067   -0.514097    1.361854
C       0.534273    0.178299    2.683157
C       1.651733   -0.048020    3.373764
C       2.489703   -1.022556    2.586536
C       1.780490   -2.418552    2.619583
C       1.065123   -1.962531    1.360615
N       2.057429   -0.849815    1.123144
H       1.292602    1.532730   -0.400422
H      -0.329925    1.785517   -1.074420
H      -0.010989    2.137239    0.629395
H      -1.213532   -0.079275    0.374320
H       0.063338   -0.645858   -0.691895
H      -0.332937    0.744276    2.998895
H       1.870357    0.257911    4.389176
H       3.567562   -0.997790    2.741144
H       2.482382   -3.220344    2.379063
H       1.201178   -2.686247    3.508225
H       0.746364   -2.623414    0.558545
