22

C       0.032609    1.476755    0.205632
C      -0.110425   -0.020480   -0.100587
C       0.646275   -0.443334   -1.326941
C       0.381148   -0.058950   -2.785633
C       1.392922   -1.187787   -3.150292
C       1.078949   -1.839483   -1.749714
C       2.139333   -0.893982   -1.289123
N       2.727798   -0.783529   -2.618269
C       3.316081    0.482038   -3.033078
H       1.081590    1.746231    0.366027
H      -0.342640    2.086057   -0.623372
H      -0.529944    1.752680    1.102805
H       0.241818   -0.606903    0.758650
H      -1.174203   -0.268917   -0.218163
H      -0.631509   -0.349614   -3.081303
H       0.582062    0.959937   -3.134358
H       1.381582   -1.669066   -4.127540
H       0.799793   -2.834050   -1.433330
H       2.724111   -0.894607   -0.376024
H       4.269053    0.615261   -2.509455
H       3.529270    0.444248   -4.106875
H       2.696930    1.370846   -2.833230
