13

O       0.082979    1.361654    0.018784
C       0.060461    0.020297   -0.059001
C      -0.008281   -0.757249   -1.165974
O      -0.003101   -2.076603   -0.722914
C       0.067668   -1.977952    0.601598
N       0.092974   -3.116130    1.380187
C       0.053122   -4.439339    0.980258
O      -0.012339   -4.835305   -0.153399
N       0.109222   -0.766203    1.077775
H       0.135058    1.587152    0.955216
H      -0.061756   -0.598897   -2.225583
H       0.147827   -2.923102    2.369477
H       0.090753   -5.102334    1.865984
