15

N       0.500804    0.921607   -0.660446
C      -0.159061    0.298273    0.475573
C      -1.532306   -0.245749    0.193448
N      -2.186221   -0.224269   -0.928522
C      -3.385782   -0.850172   -0.644608
C      -3.405603   -1.230860    0.663678
O      -2.199173   -0.837957    1.211061
C      -4.341596   -1.887058    1.475902
C      -5.156439   -2.451755    2.159864
H       0.556323    0.249549   -1.421045
H      -0.089015    1.668638   -1.017260
H       0.468059   -0.517123    0.857794
H      -0.232195    1.023112    1.296241
H      -4.154133   -0.988243   -1.387967
H      -5.874389   -2.949573    2.763451
