21

C      -0.102783    1.623275   -0.397599
C      -0.006929    0.151235   -0.043437
C      -1.242217   -0.386197    0.631584
C      -1.251643   -1.577985    1.557820
C      -1.477198   -0.192748    2.110716
C       0.677075   -0.865883   -0.960568
C       1.926469   -0.265486   -1.591355
O       2.410220    0.186977   -0.295963
C       1.310115   -0.460561    0.352031
H       0.858787    2.018169   -0.730529
H      -0.844431    1.793341   -1.186619
H      -0.413601    2.200202    0.479890
H      -2.130202   -0.289063    0.009601
H      -2.098567   -2.252853    1.499199
H      -0.317184   -2.074656    1.791918
H      -0.673237    0.250556    2.688890
H      -2.471498    0.076823    2.449147
H       0.198898   -1.792429   -1.248800
H       2.608260   -1.015428   -2.008444
H       1.803832    0.558186   -2.304331
H       1.528215   -0.994799    1.269848
