19

O      -0.069757   -0.033888   -0.003168
C      -0.010254    1.169309    0.008216
C       1.275068    1.971730   -0.000610
C       1.409976    2.894563   -1.222776
C       0.442414    4.030830   -1.466504
C       1.734390    4.296590   -0.736450
C       1.755807    4.277577    0.780094
C       0.484912    3.993065    1.539502
C       1.444893    2.863679    1.240165
H      -0.937726    1.785241    0.026941
H       2.093466    1.245655   -0.021193
H       1.899079    2.470437   -2.092528
H       0.372447    4.381736   -2.490838
H      -0.499053    4.084864   -0.934507
H       2.490627    4.894948   -1.230867
H       2.525856    4.863694    1.267813
H       0.444033    4.318225    2.573858
H      -0.471220    4.059940    1.035879
H       1.958195    2.417921    2.084783
