19

C       0.178674    1.376076   -0.177409
O      -0.123211   -0.002850    0.024859
C       0.481070   -0.522427    1.133330
C       1.921412   -1.052706    1.126813
C       0.777004   -1.971073    1.462132
N       0.297582   -1.759490    2.837823
C       0.038599   -0.372950    2.565307
N      -0.432375    0.585916    3.229168
C      -0.766685    0.356827    4.626653
H       1.255803    1.524314   -0.336395
H      -0.364515    1.685971   -1.072220
H      -0.145122    1.977216    0.679195
H       2.324516   -1.159650    0.123538
H       2.640077   -0.765610    1.889796
H       0.514185   -2.866134    0.914056
H       0.923767   -1.997140    3.601929
H      -0.889472   -0.704750    4.884044
H       0.011254    0.782004    5.273721
H      -1.698352    0.880301    4.863351
