18

C      -0.086520    1.537796   -0.193414
C      -0.076424    0.054712    0.086480
N       1.193816   -0.663430   -0.083882
C       0.593875   -0.582605    1.258122
C       1.376149    0.191288    2.282325
O       0.557200    0.710386    3.365075
C       1.306812    0.044436    4.400009
C       2.180884   -0.613238    3.324592
O       3.058693   -1.418243    3.299956
H       0.849308    2.009833    0.112887
H      -0.212804    1.720164   -1.265792
H      -0.912046    2.025739    0.334745
H      -0.977053   -0.464276   -0.240897
H       1.052604   -1.587107   -0.481693
H       0.110983   -1.474488    1.654431
H       1.969964    0.977822    1.801292
H       1.838293    0.738748    5.064040
H       0.695590   -0.638171    5.003803
