20

C      -0.763650    1.140082    0.288459
C      -0.133974   -0.232291    0.182697
C       1.235836   -0.416376   -0.421354
C       1.022739   -0.692242    1.047272
C       1.643709    0.196310    2.115052
C       0.886546    0.102847    3.464715
O       1.437272    0.932674    4.459760
C       3.051468   -0.156269    2.341030
N       4.146368   -0.445553    2.575421
H      -0.023164    1.923884    0.473953
H      -1.273319    1.396654   -0.646307
H      -1.507203    1.183717    1.091959
H      -0.849640   -1.018822   -0.042834
H       1.420577   -1.254717   -1.083203
H       1.787070    0.482396   -0.681746
H       1.005084   -1.740604    1.333164
H       1.624123    1.245190    1.800093
H      -0.139251    0.445160    3.303636
H       0.844408   -0.950994    3.779053
H       2.319765    0.605332    4.669503
