18

C       0.023757    1.506510    0.041707
C       0.045620   -0.002336    0.019910
C       0.026822   -0.705278   -1.184991
C       0.045215   -2.102678   -1.231073
N       0.094704   -2.783178   -2.461059
C       0.081175   -2.801078   -0.019510
C       0.099772   -2.118734    1.189998
C       0.082973   -0.727332    1.218922
O       0.100625   -0.121072    2.449232
H       0.915834    1.924519    0.527991
H      -0.008526    1.912440   -0.971958
H      -0.852745    1.898983    0.575274
H       0.001507   -0.145180   -2.116538
H      -0.326468   -2.270938   -3.224078
H      -0.288548   -3.717727   -2.419897
H       0.098719   -3.886973   -0.024144
H       0.125656   -2.657418    2.130696
H       0.093783    0.833106    2.331435
