19

C      -0.151097    1.556979   -0.068174
C      -0.071310    0.058272    0.109210
N       1.153742   -0.620343   -0.290980
C       0.772059   -0.658776    1.142750
C       1.672500    0.177812    1.993326
O       1.688451    0.172751    3.202877
C       0.217337   -1.944647    1.693235
C       1.001496   -2.832075    2.592033
N      -0.177566   -2.111369    3.097788
H       0.822894    2.032231    0.061430
H      -0.504501    1.792464   -1.077606
H      -0.854854    1.996211    0.645945
H      -1.010153   -0.460649   -0.087557
H       0.962528   -1.523105   -0.719382
H       2.351302    0.832344    1.409454
H      -0.473000   -2.419553    0.994090
H       0.889204   -3.909865    2.512636
H       1.983241   -2.496135    2.912280
H       0.149795   -1.302816    3.622613
