15

C       0.137306    1.369838    0.146268
C      -0.012929   -0.095559   -0.046122
N      -0.315131   -0.741889   -1.127364
C      -0.309826   -2.079278   -0.748523
C      -0.007023   -2.180704    0.566571
C       0.166028   -3.288032    1.544051
O       1.507465   -3.444429    1.991461
O       0.186213   -0.899509    1.033879
H       1.149458    1.622700    0.479001
H      -0.061228    1.871494   -0.800918
H      -0.561215    1.742620    0.902548
H      -0.525992   -2.869683   -1.449941
H      -0.516597   -3.144085    2.396244
H      -0.108810   -4.227607    1.057410
H       1.772707   -2.613364    2.399186
