20

C      -0.610974    1.561934    0.008812
C      -0.054411    0.141899    0.010034
C      -1.157994   -0.882066   -0.273826
C       1.215555   -0.103915   -0.869773
C       1.860149   -0.883563    0.308959
O       3.195335   -0.622663    0.650668
C       0.779403   -0.276240    1.262656
O       1.294265    0.863963    1.938993
H       0.160026    2.290930    0.266506
H      -1.006193    1.811753   -0.982436
H      -1.427621    1.670413    0.731393
H      -1.607692   -0.701055   -1.256329
H      -0.777614   -1.909433   -0.269838
H      -1.954073   -0.818763    0.476789
H       1.076425   -0.639561   -1.812608
H       1.761056    0.823079   -1.070803
H       1.767636   -1.967040    0.200508
H       3.215659    0.306648    0.914514
H       0.284008   -0.954290    1.969686
H       1.775991    0.546836    2.710045
