14

N       0.125176    1.444706    0.128038
C      -0.031762    0.051878    0.029878
C      -1.189375   -0.628401   -0.015518
N      -1.163725   -2.025587   -0.007671
C      -0.037561   -2.816402   -0.040479
O      -0.078750   -4.027021   -0.064364
C       1.284880   -2.044912   -0.010113
O       2.360313   -2.596353   -0.003333
N       1.159348   -0.666228    0.043375
H       0.599739    1.843364   -0.677172
H      -0.761908    1.915663    0.250326
H      -2.156762   -0.153927   -0.070212
H      -2.034442   -2.537325   -0.011032
H       2.024134   -0.159109    0.178915
