17

C       0.871694    1.278027   -0.241341
C       0.262096   -0.089190    0.001546
O       0.473087   -0.875053   -1.186367
C       0.019559   -2.142845   -1.164945
N      -0.581245   -2.624476   -0.157375
C       0.360093   -2.829966   -2.471995
C       1.863036   -2.958007   -2.685225
O       2.402513   -3.970439   -3.044483
H       1.945263    1.199748   -0.435544
H       0.401931    1.770090   -1.097738
H       0.727040    1.909233    0.640362
H       0.721394   -0.602313    0.852415
H      -0.812905   -0.033284    0.200174
H      -0.839244   -3.595374   -0.317389
H      -0.095151   -3.819247   -2.535125
H      -0.022997   -2.207433   -3.292142
H       2.433276   -2.026164   -2.488473
