14

N      -0.218633   -1.188584   -0.275268
C      -0.124377   -0.042581   -0.161458
C      -0.016499    1.402866   -0.014771
C      -0.307340    1.969203    1.439924
N       1.077685    2.483309    1.419442
C       2.162169    3.154813    1.890684
N       3.131383    3.097378    0.993095
C       2.668834    2.379647   -0.090500
C       1.380687    1.997389    0.181595
H      -0.615394    1.890790   -0.788878
H      -1.071728    2.747316    1.481800
H      -0.486830    1.208843    2.201371
H       2.210518    3.647745    2.848277
H       3.289080    2.197267   -0.952591
