14

O       0.185736    1.346268   -0.310010
C       0.113050    0.007984    0.077766
C      -0.163835   -0.318521    1.562769
O      -1.315676   -1.119249    1.203973
C      -1.272628   -0.669834   -0.168578
C      -2.363188    0.224983   -0.516132
C      -3.282229    0.952239   -0.808862
C      -4.316870    1.778702   -1.139365
N      -5.197522    2.481208   -1.423365
H       1.107679    1.598010   -0.413102
H       0.923520   -0.593163   -0.348077
H       0.584571   -0.904293    2.105539
H      -0.443859    0.569601    2.141833
H      -1.260803   -1.517816   -0.864116
