16

C       0.427354    1.447181   -0.050718
C       0.122219   -0.017796   -0.008472
C      -0.005244   -0.910036   -1.032041
C       0.083596   -0.816190   -2.529833
C       1.271364   -0.118073   -3.014838
C       2.242999    0.454876   -3.427674
O      -0.304675   -2.133495   -0.551798
N      -0.383830   -2.076554    0.834619
C      -0.129892   -0.828433    1.136321
H       1.193908    1.711171    0.685110
H       0.794561    1.744211   -1.035067
H      -0.460163    2.049363    0.175768
H       0.063749   -1.837221   -2.927233
H      -0.814995   -0.320368   -2.922056
H       3.106919    0.953933   -3.791654
H      -0.129732   -0.531235    2.176637
