20

C      -0.001558    1.578174    0.188741
C       0.032279    0.045807    0.055014
N       0.680668   -0.512523    1.246583
C      -1.362841   -0.448215   -0.086159
N      -2.435489   -0.870941   -0.184617
C       0.818908   -0.450864   -1.207578
N       0.211638   -0.136995   -2.498521
C       2.276659    0.032271   -1.252986
O       2.961111   -0.605410   -2.307874
H       1.005687    1.952413    0.379919
H      -0.399549    2.048901   -0.713639
H      -0.644488    1.872916    1.023140
H       0.190117   -0.218390    2.086143
H       0.642654   -1.527991    1.226606
H       0.853825   -1.545739   -1.139195
H      -0.683629   -0.600121   -2.615226
H       0.055788    0.861614   -2.601081
H       2.297366    1.129608   -1.370580
H       2.787151   -0.212398   -0.319589
H       2.347720   -0.581788   -3.055968
