17

O      -0.031229    1.404431    0.092759
C       0.025270   -0.010865   -0.001922
C      -1.407651   -0.530033   -0.009293
C      -1.496127   -2.052586   -0.061917
O      -0.855050   -2.674246    1.062811
C      -2.934345   -2.568076   -0.154965
O      -2.966851   -3.977786   -0.139924
H       0.869621    1.739085    0.124842
H       0.537322   -0.331010   -0.924057
H       0.571993   -0.452640    0.843528
H      -1.922294   -0.157728    0.887636
H      -1.937217   -0.102751   -0.869176
H      -0.940649   -2.434418   -0.927429
H      -1.227033   -2.279928    1.861449
H      -3.522755   -2.140118    0.678541
H      -3.400999   -2.233974   -1.088200
H      -2.303171   -4.238830    0.512314
