14

N       0.024302    1.379936   -0.150501
C      -0.024374    0.009734   -0.066118
C      -1.187868   -0.699189   -0.039510
O      -2.404863   -0.094216   -0.034944
C      -1.164486   -2.131234   -0.008291
N      -2.240595   -2.814227    0.022412
O       0.099450   -2.712025   -0.008346
C       1.189446   -1.915326   -0.024371
N       1.200844   -0.642209   -0.052192
H       0.886249    1.793288    0.170225
H      -0.816705    1.865955    0.120839
H      -3.047765   -0.823529   -0.000441
H      -2.073319   -3.816474    0.048232
H       2.103114   -2.498971   -0.009818
