19

C       0.049889    1.386509    0.239788
C      -0.207391   -0.043156   -0.221354
N       0.896004   -0.512785   -1.069545
C       0.887432   -1.825391   -1.497638
C       1.154827   -2.460743   -2.669240
N       1.099821   -3.837791   -2.457647
C       0.792635   -3.975782   -1.212398
C       0.563165   -5.217848   -0.432159
O       0.650583   -2.780122   -0.549480
H       0.992864    1.452741    0.789623
H       0.104167    2.074954   -0.611697
H      -0.759699    1.729786    0.889923
H      -0.264822   -0.713268    0.640318
H      -1.176441   -0.106704   -0.742729
H       1.082040    0.115496   -1.840688
H       1.383003   -2.036766   -3.633442
H       1.250904   -5.290507    0.417393
H      -0.456647   -5.256760   -0.033255
H       0.718440   -6.075072   -1.087997
