19

N      -0.084595    1.277557   -0.236778
C      -0.006133    0.047920    0.047642
O       1.193267   -0.570947    0.262953
C       1.231669   -1.830634    0.959666
C      -0.048336   -2.639521    0.779480
C      -0.332246   -2.975371   -0.713483
C      -1.198099   -1.780517   -1.194461
C      -1.229417   -0.843675    0.049331
N      -1.132820   -1.741007    1.216847
H       0.847002    1.699440   -0.224909
H       2.102846   -2.361908    0.565385
H       1.387911   -1.627179    2.025204
H       0.008594   -3.524769    1.418358
H       0.589025   -3.082826   -1.292366
H      -0.876597   -3.920060   -0.793301
H      -0.794116   -1.284448   -2.079765
H      -2.217275   -2.098618   -1.432907
H      -2.110006   -0.205395    0.097574
H      -2.001269   -2.263860    1.298720
