19

C       0.077920    1.472380    0.040798
C      -0.018612   -0.031992   -0.185762
N      -1.372044   -0.502572    0.104868
C      -1.672453   -1.836346    0.092561
C      -2.874707   -2.503682    0.042229
C      -4.252377   -1.928630   -0.062015
C      -2.462917   -3.855783    0.130950
N      -1.165094   -4.017130    0.221155
O      -0.651461   -2.697336    0.191892
H       1.093607    1.821710   -0.162728
H      -0.599086    2.018880   -0.626236
H      -0.178396    1.729609    1.072504
H       0.282141   -0.282876   -1.214393
H       0.667291   -0.562419    0.480008
H      -2.112971    0.082435   -0.253766
H      -4.352002   -1.241479   -0.912572
H      -4.990511   -2.722024   -0.207162
H      -4.544856   -1.373517    0.838203
H      -3.092174   -4.736890    0.130855
