20

C      -0.001059    1.470568   -0.493502
C      -0.015059    0.020570   -0.053049
C       1.167894   -0.828672   -0.336798
N       0.867780   -0.402198    1.044601
C      -1.395256   -0.609945   -0.025416
O      -1.889097   -0.530722   -1.348440
C      -1.566320   -1.984421    0.671214
O      -2.513271   -1.438669    1.613831
C      -2.360720   -0.110307    1.084509
H       1.023214    1.854004   -0.539184
H      -0.456110    1.576249   -1.481022
H      -0.565023    2.099289    0.205758
H       1.051785   -1.893231   -0.521454
H       2.007241   -0.371796   -0.853950
H       1.477420    0.365683    1.314391
H      -2.787985   -0.876045   -1.357244
H      -2.012849   -2.755188    0.028990
H      -0.676592   -2.377223    1.171466
H      -1.922368    0.577167    1.818523
H      -3.306356    0.309653    0.714850
