19

O       0.086882    1.415701    0.003365
C       0.023300    0.003027   -0.049624
C       0.833979   -0.713013    1.068058
C       0.063864   -2.006249    1.418239
C      -1.363298   -1.780692    0.933127
C      -2.104835   -0.524572    1.380293
C      -1.696050    0.315812    2.469587
C      -1.399050    1.038520    3.386853
C      -1.386990   -0.576848    0.034355
H      -0.297034    1.683226    0.847733
H       0.432884   -0.256299   -1.032475
H       1.859836   -0.914084    0.750115
H       0.891559   -0.049851    1.933332
H       0.478069   -2.865400    0.879085
H       0.114384   -2.243965    2.485823
H      -1.982096   -2.648514    0.731664
H      -3.185505   -0.604749    1.294160
H      -1.133903    1.663099    4.203808
H      -2.013260   -0.524758   -0.849100
