15

O      -0.026854   -0.046015   -0.291433
C      -0.069125    1.155360   -0.118574
N      -1.153652    1.935418   -0.392354
C      -1.493363    3.183155    0.283819
C      -0.662418    4.378936   -0.192140
O      -1.209113    5.425116   -0.486517
C       0.788174    4.227605   -0.172757
C       1.493263    3.122136    0.147586
N       1.071906    1.828608    0.364429
H      -1.924192    1.387768   -0.743249
H      -2.537550    3.412476    0.072274
H      -1.381996    3.085898    1.373832
H       1.346285    5.138207   -0.357023
H       2.570572    3.216365    0.253725
H       1.799008    1.154572    0.554451
