18

C      -0.171512    1.587432   -0.202953
C      -0.060412    0.075415   -0.010938
C       0.859083   -0.605005   -1.114866
C       2.063371   -0.548331   -0.101753
C       0.978343   -0.453721    0.942068
C       0.421414   -1.174570    1.918194
C      -1.066617   -1.113164    1.745254
O      -1.939056   -1.537597    2.468777
N      -1.273555   -0.520432    0.487390
H       0.790307    2.023998   -0.486639
H      -0.885238    1.815639   -1.002731
H      -0.514460    2.071160    0.716169
H       0.548641   -1.631940   -1.308548
H       0.973416   -0.054060   -2.051505
H       2.729958   -1.409623   -0.048557
H       2.656754    0.362111   -0.223256
H       0.886058   -1.834244    2.637486
H      -2.184569   -0.128686    0.298529
