23

C       0.082829    1.595832   -0.071941
C       0.044135    0.077313   -0.002945
O      -1.302163   -0.391859   -0.096697
C       0.978060   -0.744045   -0.948886
C       1.331853   -1.704594    0.232786
C       0.890001   -3.143223    0.088632
C       2.706724   -1.391538    0.875726
C       2.055517   -0.237521    1.695406
C       0.643684   -0.673121    1.208136
H       1.098666    1.987274    0.033206
H      -0.300797    1.943628   -1.039818
H      -0.542742    2.029172    0.714826
H      -1.640513   -0.134144   -0.961817
H       0.453194   -1.207798   -1.789128
H       1.835886   -0.185814   -1.336542
H       1.472412   -3.661548   -0.684045
H       1.017913   -3.695366    1.026756
H      -0.166795   -3.196191   -0.193053
H       3.054741   -2.206623    1.517741
H       3.519738   -1.125472    0.192606
H       2.195773   -0.314362    2.775588
H       2.356856    0.769325    1.394866
H      -0.077861   -0.958886    1.974964
