21

O      -0.146838    1.391241   -0.020713
C       0.010994   -0.016099    0.019864
C       0.595037   -0.554954    1.350233
C       0.140620   -2.005463    1.351395
C      -1.095966   -2.087685    0.469495
C      -1.374073   -0.687968   -0.053242
C       0.208048   -2.700100    0.009382
C       0.987354   -2.074139   -1.138903
C       0.875120   -0.522397   -1.146997
H       0.730451    1.786693   -0.063369
H       1.684414   -0.431642    1.400247
H       0.154804   -0.006541    2.190714
H       0.229453   -2.594002    2.257649
H      -1.926351   -2.738098    0.719506
H      -2.072856   -0.156371    0.602209
H      -1.782739   -0.662850   -1.069400
H       0.253170   -3.784889    0.048196
H       2.037966   -2.378010   -1.068066
H       0.621038   -2.482035   -2.087759
H       0.434313   -0.163927   -2.082611
H       1.871883   -0.068155   -1.072009
