20

C      -0.126571    1.584880   -0.068672
C      -0.015025    0.053465   -0.019091
C       0.821328   -0.497685   -1.190662
N       2.264508   -0.334681   -1.019156
C       2.708224   -0.138182    0.145935
O       2.029868   -0.085251    1.321215
C       0.636147   -0.475788    1.265085
C       0.034819   -0.012445    2.585037
O       0.660446   -0.638246    3.687512
H       0.850575    2.063873    0.042516
H      -0.543000    1.899466   -1.030462
H      -0.781903    1.972471    0.716251
H      -1.023707   -0.374488   -0.077057
H       0.612746   -1.564954   -1.340802
H       0.538683    0.001502   -2.124517
H       3.769230    0.031693    0.321802
H       0.613880   -1.574139    1.253981
H       0.097704    1.082988    2.657061
H      -1.023175   -0.293676    2.617178
H       1.603470   -0.456392    3.605072
