16

C       0.195689    1.488692    0.069811
C      -0.100709    0.005053    0.134811
O      -0.507195   -0.547774    1.124207
C       0.130937   -0.761952   -1.179632
N       0.097219   -2.196086   -1.032782
C       1.107779   -3.085684   -1.285346
N       0.727101   -4.309613   -1.040053
N      -0.583574   -4.247527   -0.601864
C      -0.932739   -2.988218   -0.601403
H       1.279513    1.643646    0.007757
H      -0.244120    1.942408   -0.824857
H      -0.184925    1.980158    0.965301
H      -0.633419   -0.427729   -1.894701
H       1.096053   -0.475103   -1.607931
H       2.077573   -2.780870   -1.648719
H      -1.888112   -2.594367   -0.295611
