20

C       0.069835    1.520461   -0.101598
C      -0.010308    0.033008    0.129786
N       1.262594   -0.733205    0.045567
C       0.507962   -0.733042    1.316109
C       1.286357   -0.155517    2.472850
O       2.365432   -1.005781    2.832612
C      -0.440386   -1.909896    1.562442
C      -1.436322   -1.810658    0.428848
C      -1.217690   -0.732087   -0.327056
H       1.003743    1.929737    0.288461
H       0.035330    1.741517   -1.174622
H      -0.768679    2.039892    0.374439
H       1.106043   -1.599628   -0.466228
H       1.645060    0.852211    2.220456
H       0.651144   -0.072769    3.361313
H       2.888154   -1.112388    2.028522
H       0.088012   -2.871466    1.583888
H      -0.933827   -1.813974    2.539193
H      -2.208198   -2.552914    0.260240
H      -1.802139   -0.428735   -1.188698
