18

N      -0.067541    1.305663    0.060722
C      -0.018919   -0.046573   -0.017317
O       1.021000   -0.676694   -0.122917
C      -1.359184   -0.791529    0.066175
O      -1.145568   -2.130006   -0.297357
C      -1.956319   -0.701719    1.487224
C      -3.299748   -1.384659    1.549217
C      -4.374281   -0.911478    2.427990
O      -4.402062   -0.630046    1.027081
H       0.790037    1.825106   -0.034599
H      -0.939371    1.805239    0.026717
H      -2.070458   -0.332778   -0.637274
H      -0.177184   -2.224911   -0.317434
H      -1.258690   -1.182922    2.183429
H      -2.071461    0.344853    1.791049
H      -3.297207   -2.431566    1.249546
H      -5.133767   -1.607460    2.781365
H      -4.199884   -0.051542    3.074518
