15

C      -0.058848    1.343530   -0.063849
O       0.032009   -0.082396    0.043980
C       0.679180   -0.538884    1.134725
O       1.157326    0.181034    1.976848
C       0.715740   -2.049549    1.146975
C       1.438917   -2.600626    2.367243
O       1.404928   -4.015782    2.263477
H       0.936900    1.792707   -0.100860
H      -0.599621    1.537119   -0.990264
H      -0.599297    1.762031    0.789105
H      -0.310908   -2.430457    1.109354
H       1.198172   -2.401079    0.228185
H       2.468867   -2.216897    2.390604
H       0.942858   -2.245726    3.281925
H       1.863993   -4.381412    3.024940
