20

C       0.064963    1.504035   -0.235524
C      -0.091221   -0.005452   -0.002866
C       0.629310   -0.468082    1.232192
C       2.114830   -0.862395    1.285988
C       1.075602   -1.814243    1.761172
O       0.689643   -1.465832    3.115634
C       0.188549   -0.240948    2.644996
N      -0.463272    0.647469    3.234546
C      -0.771116    0.485671    4.648801
H       1.116925    1.773355   -0.375734
H      -0.487835    1.820310   -1.125183
H      -0.315026    2.061537    0.624805
H      -1.155412   -0.252964    0.090568
H       0.286086   -0.562403   -0.869119
H       2.542751   -1.072545    0.309532
H       2.792659   -0.409668    2.003106
H       0.887411   -2.828349    1.435807
H      -0.274609    1.280154    5.217213
H      -1.848810    0.613772    4.795937
H      -0.469240   -0.483141    5.063033
