16

N      -0.038757    1.226270   -0.311426
C      -0.162219   -0.041858   -0.364063
N      -1.352938   -0.652643   -0.069655
C      -1.753325   -2.074383   -0.026235
C      -3.199957   -1.571230    0.329868
C      -2.625704   -0.158732    0.281850
N      -3.105607    0.985942    0.482262
C      -1.583767   -2.816174   -1.264016
C      -1.433606   -3.434971   -2.283159
H       0.906703    1.502400   -0.566721
H       0.619670   -0.759199   -0.640421
H      -1.276297   -2.611337    0.801853
H      -3.943530   -1.782109   -0.438897
H      -3.569248   -1.892225    1.304427
H      -2.384769    1.697955    0.349403
H      -1.307490   -3.979192   -3.186811
