16

O      -0.358272    1.183110    0.996652
N      -0.135027   -0.142156    0.608006
C      -1.045659   -0.581331   -0.184527
C      -0.860534   -1.999905   -0.684319
C      -2.172561   -2.706935   -0.940309
O      -3.186652   -2.587098    0.046483
C      -3.377460   -1.902043   -1.216155
C      -3.264415   -0.424685   -1.189591
C      -2.187090    0.186273   -0.675974
H       0.402937    1.359096    1.559224
H      -0.310033   -1.977700   -1.635871
H      -0.243114   -2.558428    0.024417
H      -2.090985   -3.695603   -1.393874
H      -4.173107   -2.326748   -1.824066
H      -4.097902    0.154140   -1.575377
H      -2.133999    1.264759   -0.596101
