17

O       0.123785    1.232265   -0.521694
C       0.088941   -0.099375   -0.073737
C       0.181800   -0.314028    1.467046
N      -1.262737   -0.696599    1.547434
C      -2.166498    0.498749    1.631225
C      -2.557132    0.333462    0.131085
C      -2.697022    1.500299   -0.722390
N      -2.883147    2.426724   -1.388081
C      -1.359152   -0.645663    0.033866
H       1.035735    1.540023   -0.519080
H       0.754064   -0.741085   -0.666903
H       0.825143   -1.146784    1.767790
H       0.449349    0.576163    2.045484
H      -2.983774    0.380413    2.346250
H      -1.639016    1.435666    1.833113
H      -3.479780   -0.248290    0.047881
H      -1.546307   -1.582002   -0.496664
