20

C       0.252153    1.450437    0.445055
C      -0.037056    0.000699    0.192262
C      -0.945906   -0.828764    1.002915
N       0.506967   -1.118208    1.078769
C       0.864381   -1.887700   -0.177323
C       0.328600   -3.307155   -0.246466
O       0.845351   -4.077142    0.827472
C       0.318504   -0.766557   -1.093236
O      -0.734497   -1.178017   -1.939787
H       1.263233    1.718090    0.118952
H      -0.456285    2.091433   -0.093755
H       0.169796    1.680228    1.511127
H      -1.324218   -0.395381    1.923702
H      -1.621358   -1.525804    0.516603
H       1.956208   -1.933686   -0.216766
H      -0.769744   -3.322634   -0.260773
H       0.665481   -3.784064   -1.172725
H       0.723618   -3.554052    1.628526
H       1.113430   -0.270482   -1.665463
H      -1.048021   -0.414363   -2.435206
