21

C       0.006763    1.447527   -0.028840
C       0.035498   -0.056050   -0.059639
C       0.571642   -0.982958   -1.171554
C       0.062496   -1.952553   -0.088696
C       0.080432   -3.451500   -0.100189
O       1.438167   -3.873439   -0.161076
C       0.547547   -1.017893    1.078381
C      -0.826795   -1.046771    1.774970
C      -1.158179   -1.033353    0.269310
H       1.019024    1.860770   -0.102959
H      -0.576887    1.847373   -0.865820
H      -0.439630    1.821731    0.899187
H       0.025827   -0.977174   -2.122770
H       1.651986   -0.970735   -1.348163
H      -0.419098   -3.838456    0.803396
H      -0.489014   -3.818351   -0.970277
H       1.450186   -4.833412   -0.216943
H       1.547341   -1.017808    1.515681
H      -1.082628   -1.953152    2.332878
H      -1.108828   -0.159640    2.350962
H      -2.131646   -1.042096   -0.227256
