16

C       0.124295    1.546239   -0.041192
N       1.310359    0.666975   -0.066799
C      -0.013117    0.075885    0.023974
C      -0.482980   -0.867143    1.184245
N      -1.094695   -1.687637    0.112349
C      -1.863070   -2.689621   -0.426081
C      -1.852847   -2.403623   -1.781361
N      -1.128715   -1.258842   -2.082051
C      -0.705751   -0.881415   -0.899982
H       0.022694    2.145546    0.859457
H      -0.193116    2.035483   -0.958066
H       1.673757    0.571318   -1.012054
H       0.324172   -1.369245    1.721918
H      -1.209314   -0.442094    1.881423
H      -2.313479   -3.484375    0.143076
H      -2.332200   -2.972531   -2.564349
