21

C      -0.012632    1.497278   -0.009987
C      -0.019404   -0.012488    0.032732
C      -0.842637   -0.735905    1.078123
C       0.659615   -0.823810    1.128776
C       1.334052   -1.963269    0.336569
C       1.837901   -1.204027   -0.903502
C       0.392621   -0.764635   -1.266067
C      -0.255584   -2.151214   -1.325462
O       0.344392   -2.851307   -0.215137
H       0.917751    1.882360   -0.444637
H      -0.842969    1.887111   -0.611218
H      -0.107288    1.919774    0.995643
H      -1.315292   -0.102783    1.823275
H      -1.401712   -1.632391    0.843032
H       1.207974   -0.359265    1.942734
H       2.048995   -2.563620    0.899577
H       2.491922   -0.364690   -0.656129
H       2.316586   -1.846064   -1.649666
H       0.267211   -0.175626   -2.175623
H      -1.344021   -2.132686   -1.206505
H      -0.017341   -2.671847   -2.262772
