18

C       0.024176    1.601698    0.131461
C       0.005670    0.074729   -0.063394
C      -1.372716   -0.524350   -0.056801
C      -1.984668   -1.023788   -1.130180
N      -3.281341   -1.539558   -1.029375
C      -4.148429   -1.191435   -0.007667
O      -5.331906   -1.405323   -0.044020
O      -3.575851   -0.548512    1.034326
C      -2.148201   -0.617581    1.229980
H       1.051642    1.978397    0.136064
H      -0.521855    2.102228   -0.673613
H      -0.438990    1.894608    1.079104
H       0.496167   -0.175639   -1.010875
H       0.613231   -0.390878    0.725980
H      -1.541203   -1.059085   -2.118677
H      -3.744803   -1.901507   -1.846501
H      -1.918336   -1.554163    1.762377
H      -1.920950    0.207916    1.909113
