17

C      -0.202650    1.575983   -0.010133
C       0.033904    0.065566    0.033639
C       0.928984   -0.463807   -1.147723
N       1.699157   -1.623561   -0.613334
C       1.762286   -1.402791    0.757112
N       2.441855   -1.894521    1.779605
N       1.865699   -1.229810    2.811972
N       0.897745   -0.357272    2.512146
C       0.824827   -0.462165    1.193964
H       0.744927    2.121614    0.040355
H      -0.717208    1.866020   -0.932223
H      -0.819298    1.894382    0.834997
H      -0.938257   -0.445020   -0.006910
H       0.333199   -0.769205   -2.011435
H       1.606100    0.342842   -1.465924
H       2.572475   -1.812298   -1.086398
H       2.207258   -1.334546    3.751667
