22

C       0.346354    1.349090   -0.034076
C      -0.175703   -0.107198   -0.009199
C       0.373113   -0.823665    1.233380
C      -1.716113   -0.098596    0.012088
C       0.277841   -0.732433   -1.343297
O      -0.195324   -0.381434   -2.403149
N       1.362302   -1.618882   -1.284042
C       1.243414   -3.027185   -0.921462
C       1.557168   -2.606329   -2.322433
H       1.440787    1.376217   -0.044245
H      -0.018845    1.871602   -0.921447
H       0.001561    1.885247    0.856357
H       0.058771   -0.285539    2.133987
H      -0.004578   -1.847316    1.316999
H       1.465302   -0.861786    1.227079
H      -2.108127    0.371864   -0.891657
H      -2.119613   -1.115595    0.068107
H      -2.078332    0.453746    0.885193
H       2.021209   -3.418930   -0.271919
H       0.247133   -3.418969   -0.732119
H       0.773861   -2.684507   -3.070869
H       2.572704   -2.700942   -2.695103
