14

C       0.010399    1.429463    0.008922
O       0.024765    0.007906    0.005071
C      -1.175138   -0.591242    0.012411
C      -1.353262   -1.974223    0.010032
N      -2.711617   -2.162525    0.019814
N      -3.399065   -1.027174    0.027883
C      -2.481446   -0.055791    0.023513
C      -0.423932   -3.031900    0.000287
N       0.325252   -3.916244   -0.007635
H       1.053854    1.744817    0.001973
H      -0.496574    1.821705   -0.881209
H      -0.483231    1.816996    0.908564
H      -3.197541   -3.044387    0.021180
H      -2.791350    0.976657    0.028524
