23

C      -0.527956    1.389829    0.224599
C       0.389723    0.223944   -0.168264
C       1.005445   -0.474872    1.033634
C       2.054917    0.319049    1.787728
O       0.065735   -1.162605    1.885431
C       1.022738   -1.947549    1.160335
C       0.508710   -2.927322    0.161412
C       1.473932   -3.907901   -0.465041
C       0.455930   -4.392127    0.531474
H       0.018725    2.189259    0.734032
H      -0.999568    1.826197   -0.660881
H      -1.317493    1.039686    0.895830
H      -0.184536   -0.494130   -0.758947
H       1.199317    0.583692   -0.816069
H       1.644856    1.264454    2.156817
H       2.419106   -0.246443    2.648961
H       2.905860    0.553114    1.138554
H       1.813849   -2.362083    1.793487
H      -0.298718   -2.569514   -0.466753
H       1.339282   -4.156675   -1.511513
H       2.511746   -3.865661   -0.150488
H       0.805084   -4.674506    1.519258
H      -0.384183   -4.976117    0.173232
