19

C      -0.089256    1.580813   -0.073847
C      -0.023810    0.053577    0.039056
O      -1.356207   -0.479998    0.148487
C       0.536302   -0.572372   -1.249084
C       0.789654   -2.062045   -1.095494
O       0.414353   -2.878269   -1.900930
C       1.606558   -2.463124    0.130923
C       1.519660   -1.491259    1.274031
C       0.804464   -0.369008    1.235969
H       0.908704    2.016609   -0.187412
H      -0.701789    1.869591   -0.932224
H      -0.541868    2.009571    0.827790
H      -1.688710   -0.270413    1.028018
H      -0.153398   -0.414582   -2.081053
H       1.492621   -0.088850   -1.487201
H       1.296320   -3.470043    0.432833
H       2.653530   -2.568968   -0.194027
H       2.072257   -1.750845    2.174208
H       0.773069    0.285305    2.105119
