18

O      -0.078465    1.320610    0.083289
N       0.019521   -0.072273    0.250455
C      -1.093376   -0.632632    0.048517
C      -2.506574   -0.261981   -0.319965
O      -2.867453   -1.663733   -0.259030
C      -1.527800   -2.075217    0.096477
C      -0.798192   -3.151155   -0.742376
C      -0.181336   -3.689753    0.578175
C      -1.289596   -2.933222    1.361675
H       0.821688    1.612811    0.263304
H      -3.046674    0.348635    0.413769
H      -2.641865    0.169071   -1.319374
H      -1.532671   -3.842725   -1.164689
H      -0.128691   -2.803237   -1.531484
H      -0.133963   -4.772841    0.701422
H       0.808229   -3.267303    0.765534
H      -1.018861   -2.408449    2.279981
H      -2.165443   -3.562096    1.544670
