25

C      -1.554948    0.557405    0.004604
C      -0.093208    0.149182    0.074606
O       0.262217   -0.468810   -1.144943
C       1.605949   -0.891534   -1.187401
C       1.877109   -1.518718   -2.554274
C       1.679951   -0.517436   -3.692935
O       3.205125   -2.013505   -2.475977
C       3.554065   -2.965635   -3.460829
C       4.938076   -3.502852   -3.134189
H      -1.718797    1.259069   -0.818323
H      -2.190120   -0.317597   -0.160282
H      -1.861734    1.038863    0.937950
H       0.547189    1.029401    0.254866
H       0.074858   -0.545783    0.914898
H       2.293201   -0.043253   -1.028822
H       1.813787   -1.635797   -0.402758
H       1.175563   -2.359702   -2.684325
H       2.415885    0.289868   -3.613591
H       1.789207   -0.989397   -4.673202
H       0.678234   -0.085816   -3.629266
H       2.814932   -3.784610   -3.472759
H       3.551292   -2.514961   -4.465519
H       5.672188   -2.692025   -3.129790
H       4.943743   -3.973914   -2.147125
H       5.245101   -4.244869   -3.877461
