19

C       0.051131    1.541191    0.413164
C       0.034586    0.069696   -0.019299
C      -1.361452   -0.495280   -0.168520
C      -2.103190   -1.027663    1.050224
C      -1.664582   -1.964742   -0.037610
O      -2.653700   -2.345464   -0.973967
C      -3.051271   -1.271258   -1.723214
O      -3.909286   -1.354023   -2.549711
C      -2.244011   -0.033704   -1.313758
H       1.076730    1.905555    0.523472
H      -0.450454    2.178578   -0.322538
H      -0.460133    1.675157    1.372077
H       0.570647   -0.040994   -0.971372
H       0.586534   -0.531853    0.713636
H      -1.553802   -1.055960    1.985414
H      -3.167896   -0.841575    1.153059
H      -0.919126   -2.735305    0.114703
H      -2.936302    0.776602   -1.069081
H      -1.654995    0.294758   -2.177433
