27

C       0.111954    1.569490    0.110717
C       0.045589    0.040242    0.107125
C      -1.380500   -0.496660   -0.062694
C      -1.463926   -2.029006   -0.022969
O      -0.864608   -2.530322    1.175517
C      -2.893106   -2.594343   -0.200141
C      -3.571087   -2.076236   -1.477885
C      -2.865510   -4.136225   -0.161815
C      -4.229770   -4.792487    0.072011
H       1.140921    1.923406    0.229277
H      -0.278112    1.989164   -0.823645
H      -0.480134    1.990920    0.931252
H       0.673312   -0.352970   -0.703652
H       0.468644   -0.358594    1.034536
H      -2.027616   -0.085687    0.728775
H      -1.792024   -0.131249   -1.010198
H      -0.832027   -2.435471   -0.825516
H      -1.380424   -2.192253    1.916752
H      -3.481433   -2.245290    0.665391
H      -4.534503   -2.568264   -1.637624
H      -3.760587   -1.000575   -1.442391
H      -2.948403   -2.279768   -2.357685
H      -2.437047   -4.503930   -1.104919
H      -2.176165   -4.444766    0.629009
H      -4.669135   -4.461728    1.020317
H      -4.947188   -4.560449   -0.721778
H      -4.135017   -5.882170    0.115643
