19

C      -0.014194    1.560714    0.309378
C       1.488336    1.620182   -0.093779
C       1.397059    0.159745   -0.628845
C      -0.045187    0.036464   -0.036683
C      -0.903205   -0.508532   -1.171589
C      -0.831060    0.181100   -2.522333
O       0.280172    1.073865   -2.586999
C       1.156272   -0.014570   -2.126851
C      -0.001846   -1.037431   -2.282088
H      -0.227721    1.801514    1.353743
H      -0.660988    2.161307   -0.331274
H       1.757918    2.378296   -0.830385
H       2.159526    1.707727    0.764083
H       2.150779   -0.547948   -0.269416
H      -0.125242   -0.601469    0.847062
H      -1.823350   -1.044987   -0.963496
H      -1.679564    0.379965   -3.166772
H       2.037051   -0.101514   -2.765912
H       0.007338   -2.024076   -2.722719
