17

C       0.199166    1.249439   -0.248628
C       0.408992   -0.185455    0.150253
O       1.734591   -0.616583    0.421680
C       0.814916   -0.589169    1.532224
C       1.044173    0.408983    2.543626
C       1.246524    1.225112    3.401459
C       0.350512   -1.951407    2.039693
C       0.762909   -3.156346    1.221910
O      -0.301585   -2.027949    3.051515
H       0.771103    1.921513    0.392909
H       0.513734    1.395833   -1.287023
H      -0.862108    1.507773   -0.176406
H      -0.184822   -0.914439   -0.405082
H       1.423494    1.942726    4.164393
H       0.488270   -3.050951    0.168526
H       1.853183   -3.256398    1.246320
H       0.295829   -4.046322    1.644334
