21

C      -0.000061    1.524260   -0.000007
C      -0.022435    0.014085   -0.025359
C       0.187509   -0.805181   -1.320463
C      -0.438911   -1.952464   -0.489794
C       0.686534   -2.201246    0.522705
C       0.743433   -0.743512    1.123587
C      -0.269876   -0.754321    2.252282
C      -1.487920   -0.875126    1.709263
C      -1.327799   -0.817416    0.220705
H       1.013935    1.904928   -0.170929
H      -0.646634    1.942953   -0.778661
H      -0.341779    1.906533    0.967578
H      -0.466183   -0.448763   -2.122001
H       1.202582   -0.946337   -1.705833
H      -0.909083   -2.817936   -0.955462
H       0.462134   -2.949458    1.285935
H       1.614534   -2.485350    0.016864
H       1.742515   -0.379894    1.368317
H      -0.013416   -0.806558    3.303750
H      -2.425395   -1.018264    2.232537
H      -2.194512   -0.534815   -0.378661
