15

O       0.193981    1.225144   -0.383091
C       0.072062   -0.116868   -0.016058
C       0.174795   -0.407719    1.539883
C      -1.363237   -0.467946    1.587301
O      -2.158376    0.771582    1.565286
C      -2.768225   -0.033582    0.510540
C      -2.529522   -1.430907    1.237230
O      -1.821719   -2.032211    0.115541
C      -1.414465   -0.624014    0.054329
H      -0.425472    1.727520    0.162929
H       0.733179   -0.701812   -0.658623
H       0.623884   -1.379708    1.753491
H       0.651835    0.363236    2.148422
H      -3.637390    0.374423   -0.012865
H      -3.193902   -2.070111    1.826060
