17

O      -0.072118    1.440034    0.103684
C       0.025669    0.019553    0.002614
C      -1.416026   -0.495956   -0.032318
O      -2.105415   -0.032582    1.120819
C      -2.138926   -0.128601   -1.325701
C      -2.616047   -1.201719   -1.959769
C      -2.242721   -2.446700   -1.223441
O      -0.806483   -2.645308   -1.119784
C      -1.493404   -2.024745   -0.034143
H       0.797721    1.796330    0.303223
H       0.560492   -0.291278   -0.902052
H       0.534314   -0.401816    0.881521
H      -1.819700    0.882601    1.242566
H      -2.202705    0.899137   -1.662785
H      -3.164859   -1.202200   -2.893569
H      -2.824880   -3.360718   -1.278502
H      -1.495483   -2.548717    0.917700
