20

O      -0.014074   -0.161819   -0.177900
C      -0.002299    1.052967   -0.095239
C      -1.345014    1.791719   -0.055938
C      -1.470498    3.320851   -0.086151
C      -1.271236    4.000716    1.274040
C       0.069064    3.624951    1.937541
C       1.236732    3.860515    1.028507
C       1.692324    2.994675    0.120884
N       1.223609    1.698388   -0.147700
H      -1.865023    1.371940   -0.924068
H      -1.878332    1.381358    0.810490
H      -0.778180    3.740432   -0.822485
H      -2.476981    3.560935   -0.447642
H      -1.325948    5.088095    1.143371
H      -2.091868    3.725410    1.948657
H       0.192120    4.195736    2.863938
H       0.041405    2.565786    2.224264
H       1.723898    4.830555    1.063377
H       2.558449    3.251227   -0.483645
H       1.943201    1.017276   -0.355931
