19

O      -0.002062    1.474304   -0.129430
C       0.027714    0.051787    0.003697
C      -1.394635   -0.522096    0.161201
O      -2.084735   -0.610627   -1.087384
C      -1.426045   -1.568251   -1.880903
C      -1.480192   -1.464352   -3.430588
C       0.059983   -1.777146   -3.451144
C       0.058758   -1.342897   -1.999823
C       0.744106   -0.549276   -1.188164
H      -0.488859    1.656449   -0.942140
H       0.574334   -0.128839    0.936926
H      -1.352644   -1.514694    0.638755
H      -1.976666    0.149351    0.796242
H      -1.687446   -2.587695   -1.547961
H      -2.148594   -2.147000   -3.958249
H      -1.678981   -0.434810   -3.734788
H       0.253388   -2.846490   -3.585857
H       0.687598   -1.216414   -4.146743
H       1.746104   -0.187540   -1.402594
