20

C       0.010665    1.287837   -0.180353
C       0.314914   -0.168522    0.087158
C       1.713044   -0.707186    0.088537
C       0.926415   -0.679408    1.394149
C       1.347285    0.325788    2.413391
O       2.026779    1.301429    2.195010
N       0.354292   -1.842036    2.034511
C       0.123288   -3.066756    1.284603
C       1.220553   -2.995159    2.287249
H       0.771420    1.939139    0.253066
H      -0.020038    1.468483   -1.260445
H      -0.962667    1.571794    0.233434
H      -0.436827   -0.858451   -0.290827
H       1.910867   -1.668289   -0.373925
H       2.527042    0.008362    0.032600
H       0.964939    0.096279    3.430819
H      -0.805207   -3.581734    1.514861
H       0.411284   -3.110487    0.236625
H       2.237296   -2.957948    1.901307
H       1.113200   -3.460210    3.262556
