13

O      -0.118005    0.063610   -0.191617
C      -0.031311    1.221235    0.032946
O      -1.007234    2.087517    0.489717
C      -0.100507    3.231562    0.514199
C       1.005815    2.331606   -0.031641
N       2.406464    2.211556    0.296094
C       2.039589    2.624571   -1.070083
C       2.340029    1.705461   -2.142224
N       2.578476    1.009347   -3.032708
H      -0.455724    4.030487   -0.139795
H       0.043587    3.595369    1.534843
H       2.735374    3.009474    0.835523
H       2.150914    3.671197   -1.344610
