20

C       0.091150    1.538205   -0.274432
C       0.013692    0.022292   -0.015555
C      -1.387186   -0.481234    0.146234
C      -2.198339   -0.596412    1.261412
C      -3.433959   -1.087994    0.765743
N      -4.604455   -1.327102    1.471534
C      -4.511646   -1.682080    2.875776
N      -3.395930   -1.278876   -0.552378
N      -2.141179   -0.889095   -0.900838
H       1.131184    1.861759   -0.382080
H      -0.446328    1.809313   -1.188375
H      -0.358515    2.095756    0.552069
H       0.503007   -0.514778   -0.837944
H       0.580288   -0.222910    0.888697
H      -1.931708   -0.356765    2.277488
H      -5.241321   -1.904052    0.940099
H      -5.516093   -1.878074    3.259043
H      -3.883208   -2.565320    3.074334
H      -4.102266   -0.843417    3.448909
H      -1.863859   -0.959995   -1.864265
