15

O      -0.059038    1.471569   -0.033837
C       1.382844    1.392811    0.010815
C       1.345498    0.042482    0.793295
C      -0.009310    0.028626    0.017823
C       0.665431   -0.428131   -1.295091
O       1.384198   -1.592575   -0.893983
C       2.280871   -0.916255   -0.020883
O       2.970749   -0.037903   -0.901965
C       1.819079    0.702335   -1.300895
H       1.888985    2.299725    0.334428
H       1.357070    0.036246    1.878476
H      -0.924629   -0.457361    0.348589
H       0.074250   -0.600672   -2.189310
H       2.957101   -1.603781    0.479482
H       1.998983    1.285383   -2.198995
