17

C       0.263855    1.434330    0.327690
C      -0.017604   -0.006796   -0.021136
C       0.631853   -0.720176   -1.221856
C       1.539375    0.049468   -2.111369
O       2.556824    0.604847   -1.766269
N       0.952193   -1.041847    0.155186
C       2.165262   -0.881042    0.858470
N       3.223831   -1.572552    0.319073
O       2.202144   -0.311309    1.927601
H       1.245537    1.755502   -0.023114
H      -0.503993    2.079320   -0.110537
H       0.244265    1.550404    1.413803
H      -1.038835   -0.330852    0.178553
H       0.030728   -1.462807   -1.745381
H       1.197651    0.080580   -3.169383
H       3.259991   -1.675546   -0.682248
H       4.106100   -1.339171    0.748756
