16

C      -0.063297    1.448091   -0.099431
C       0.040904   -0.041022    0.082172
N       0.091663   -0.719118    1.151030
O       0.085490   -0.646085   -1.134128
C       0.061548   -2.066843   -1.128517
C      -1.383086   -2.587183   -0.988459
O      -2.336746   -1.876720   -0.854047
C       0.644061   -2.576953   -2.361690
C       1.075084   -3.053635   -3.376305
H      -0.026925    1.961863    0.862172
H       0.749948    1.809157   -0.735566
H      -1.004027    1.690595   -0.602659
H       0.061812   -0.116884    1.969062
H       0.611809   -2.442374   -0.254412
H      -1.453760   -3.695085   -1.028437
H       1.476008   -3.462318   -4.271200
