17

O       0.145653    0.122654    0.959144
C       0.047714    1.171158    0.380198
C       1.217497    1.942256   -0.221911
C       1.644984    3.070608    0.743033
C       2.658705    2.329361    1.625325
C       3.340589    1.385016    0.609849
O       2.349811    1.115494   -0.397257
C       4.534434    1.975308   -0.000361
C       5.515863    2.467662   -0.488919
H      -0.934300    1.691284    0.271241
H       0.903579    2.333869   -1.198540
H       2.128953    3.872957    0.179996
H       0.811091    3.499561    1.304693
H       3.369862    2.991366    2.120014
H       2.144692    1.732441    2.383295
H       3.605852    0.429017    1.073987
H       6.386317    2.891337   -0.925867
