15

O       0.027831   -0.048061    0.016478
C       0.002554    1.161280    0.028508
N      -1.161920    1.948032   -0.036687
C      -0.830528    3.331623   -0.203466
C      -0.850574    4.439809    0.928366
C       0.658550    4.747556    0.598129
C       0.654543    3.361586   -0.000875
C       1.135078    2.132040    0.196267
H      -1.998703    1.529413   -0.412398
H      -1.192211    3.751462   -1.148943
H      -1.565814    5.254469    0.799568
H      -0.957126    3.987423    1.915023
H       0.757377    5.549930   -0.138678
H       1.339605    4.933104    1.429450
H       2.105350    1.818392    0.554074
