14

O       0.035038    0.018388    0.017904
C       0.024665    1.220788    0.031051
N      -0.984548    2.160384    0.065962
C      -0.101620    3.335085    0.052400
C       1.064676    2.330475    0.016534
C       2.380017    2.330574    0.738572
C       2.344170    2.342991   -0.767239
H      -1.988376    2.070440    0.081706
H      -0.207555    3.964980   -0.837343
H      -0.164064    3.952663    0.954755
H       2.674952    3.240196    1.251082
H       2.664919    1.411097    1.238804
H       2.603988    1.431641   -1.295254
H       2.615085    3.260772   -1.278421
