14

N       0.096167    1.334513    0.165284
C      -0.069163   -0.018692    0.060258
C      -1.232806   -0.698946    0.030553
C      -1.231329   -2.139753   -0.003384
N      -2.299786   -2.841023   -0.025848
N       0.074771   -2.685562   -0.012395
C       1.262502   -2.007999   -0.004260
O       2.349652   -2.510185   -0.029813
O       1.151324   -0.632328    0.037353
H       0.984077    1.689431   -0.155831
H      -0.700778    1.903915   -0.069794
H      -2.184006   -0.188277    0.042713
H      -2.098621   -3.841244   -0.050701
H       0.177694   -3.689508   -0.042211
