20

C      -0.246980    1.456374    0.022971
C      -0.130797   -0.036103   -0.028207
C      -0.156830   -0.801565   -1.125605
C       0.058559   -2.265979   -0.829270
O       1.310580   -2.733929   -1.338437
C      -0.059230   -2.334391    0.715763
C       0.028668   -0.884787    1.196940
C       0.845024   -0.438381    2.363282
N      -0.616333   -0.550005    2.481588
H       0.636316    1.915413    0.483446
H      -0.357922    1.875737   -0.979678
H      -1.115022    1.776614    0.613126
H      -0.244712   -0.430289   -2.141153
H      -0.678720   -2.910528   -1.318196
H       1.981406   -2.095965   -1.070157
H      -1.027784   -2.745273    1.014971
H       0.717849   -2.981628    1.129894
H       1.407084   -1.177608    2.928568
H       1.296804    0.550334    2.341970
H      -1.038134    0.375144    2.438643
