15

C       0.034058    1.513057    0.103147
C       1.502984    1.870595   -0.100002
C       2.169067    0.751061   -0.429074
C       3.100343    0.142083    0.585817
C       2.315213   -0.724110    1.249803
C       1.001932   -0.965953    0.521507
C       1.151559   -0.331927   -0.794945
N      -0.047725    0.042208   -0.073660
H      -0.255276    1.812994    1.118972
H      -0.694415    1.970112   -0.582734
H       1.949950    2.718537    0.409001
H       4.075873    0.505155    0.881412
H       2.579725   -1.255763    2.156090
H       0.506230   -1.920183    0.656075
H       1.114668   -0.810881   -1.771641
