19

C       0.368235    1.488033    0.128553
N       0.241759    0.030394    0.045479
C      -0.969749   -0.733786    0.534655
C      -0.071981   -1.995118    0.397268
C       0.764590   -0.897120    1.118029
C      -0.479267   -0.634045    2.035719
C      -0.667967    0.630177    2.864896
O      -0.758436   -1.743252    2.879386
H       0.994124    1.830479    0.961037
H       0.837010    1.847844   -0.795345
H      -0.606036    1.984322    0.208675
H      -1.964242   -0.557334    0.116787
H      -0.348570   -2.873183    0.972367
H       0.252549   -2.201929   -0.621157
H       1.820520   -0.920945    1.396691
H      -1.695763    0.653466    3.252664
H       0.005939    0.604346    3.727488
H      -0.510599    1.561055    2.329576
H      -1.538795   -1.532989    3.402262
