15

C       0.018033    1.508276    0.050778
C      -0.041479    0.012818    0.029671
C      -1.165033   -0.728407   -0.156456
C      -1.077597   -2.155269   -0.153411
O      -1.984414   -2.961112   -0.331607
C       0.316151   -2.650311    0.091274
N       0.421728   -3.996914    0.155923
N       1.374871   -1.909222    0.245828
O       1.166620   -0.521867    0.215596
H       0.696618    1.873306   -0.726490
H      -0.973562    1.932183   -0.112792
H       0.403099    1.859957    1.013134
H      -2.121914   -0.248168   -0.313048
H      -0.399239   -4.498786   -0.147999
H       1.326718   -4.432840    0.118834
