15

C      -0.005497    1.544412   -0.162936
C      -0.024984    0.028822    0.144228
C       0.648057   -0.260355    1.415384
N       1.169656   -0.477992    2.423091
C      -1.423609   -0.525599    0.148032
C      -2.141782   -1.109915    1.136719
O      -3.370439   -1.430722    0.630319
C      -3.322766   -1.015705   -0.653318
N      -2.203816   -0.473190   -1.003831
H       1.021981    1.907687   -0.238578
H      -0.519793    1.717779   -1.110041
H      -0.518796    2.101793    0.624258
H       0.538127   -0.484441   -0.646252
H      -1.953401   -1.362175    2.165305
H      -4.206253   -1.176175   -1.250883
