16

O       0.090948    1.294732   -0.324441
C       0.051268   -0.006252    0.238132
C      -1.332769   -0.615106    0.147129
C      -1.883607   -1.277808   -1.082208
O      -0.819864   -2.002571   -1.764822
C      -0.679853   -2.856387   -0.668033
N      -0.059246   -3.936066   -0.541837
C      -1.648474   -2.099344    0.188576
O      -2.442808   -2.622512    1.170628
H      -0.065920    1.204867   -1.270313
H       0.789762   -0.671972   -0.227080
H       0.329479    0.110080    1.289965
H      -2.103682   -0.059094    0.679371
H      -2.761985   -1.023801   -1.658371
H       0.446216   -4.184325   -1.393731
H      -2.683433   -3.521821    0.915967
