23

C      -0.269166    1.540229    0.402808
C      -0.012302    0.071688    0.073679
C      -1.308827   -0.698272   -0.205918
O      -1.948526   -0.221792   -1.373187
O       0.768209   -0.022747   -1.132341
C       2.076698   -0.514993   -1.005205
C       3.059258    0.449052   -0.375707
C       2.243471   -2.002551   -0.796470
C       2.512718   -1.375473   -2.151842
H       0.669537    2.088727    0.511938
H      -0.854369    2.000856   -0.396972
H      -0.833463    1.630633    1.337032
H       0.520883   -0.421145    0.896832
H      -1.077979   -1.772706   -0.287479
H      -2.013968   -0.570431    0.622780
H      -1.259417   -0.196660   -2.049001
H       2.796149    0.670919    0.664276
H       4.068692    0.027958   -0.378563
H       3.077867    1.392117   -0.931674
H       3.085512   -2.353247   -0.209132
H       1.344767   -2.600372   -0.699259
H       1.782325   -1.552539   -2.932629
H       3.537953   -1.296290   -2.496436
