20

C       0.175629    1.262266   -0.060638
N      -0.142172   -0.163909    0.038741
C       0.566162   -0.776351    1.160063
C      -1.571367   -0.475474    0.025389
C      -2.397262    0.494560    0.782553
N      -3.014197    1.271109    1.376461
C      -2.144246   -0.689184   -1.380982
C      -1.522794   -0.156738   -2.615650
N      -1.436372   -1.594456   -2.289279
H       1.234728    1.373853   -0.311033
H      -0.416131    1.730483   -0.848368
H      -0.020845    1.806589    0.876930
H       0.267480   -0.362971    2.138752
H       0.393579   -1.856235    1.170301
H       1.639926   -0.607027    1.037306
H      -1.693192   -1.436488    0.541961
H      -3.222893   -0.829912   -1.368926
H      -2.155695    0.087091   -3.463871
H      -0.614259    0.428607   -2.538447
H      -0.507662   -1.755950   -1.898632
