20

O      -0.063844    1.378915   -0.033721
C       0.043329   -0.032471   -0.000432
C       0.721046   -0.625392   -1.261621
C       0.085732   -2.020805   -1.474925
C      -1.242512   -1.963550   -0.725934
C      -1.357123   -0.677074    0.007378
N      -1.266790   -1.934208    0.755457
C       0.036440   -1.977143    1.458222
C       0.664538   -0.577346    1.306775
H       0.825781    1.746154   -0.044212
H       0.462639    0.028383   -2.100839
H       1.813736   -0.654088   -1.182765
H      -0.092832   -2.220551   -2.535216
H       0.726124   -2.833422   -1.112997
H      -2.101201   -2.470810   -1.157085
H      -2.242607   -0.056511    0.099735
H      -0.150682   -2.228702    2.505791
H       0.675942   -2.767752    1.050258
H       1.759433   -0.593082    1.291608
H       0.344560    0.073702    2.126715
