17

O       0.108141    1.420627    0.297132
C       0.010351    0.069964   -0.074930
C      -1.445442   -0.484221   -0.031160
O      -1.290474   -1.904773    0.021837
C      -2.207661    0.028598    1.231074
C      -1.471928   -0.291430    2.514027
O      -0.493685    0.315773    2.888140
C      -2.205060   -0.091237   -1.219587
C      -2.850465    0.196097   -2.192339
H       0.093094    1.434210    1.265453
H       0.382936   -0.029450   -1.097535
H       0.609441   -0.586106    0.568676
H      -2.069225   -2.306833   -0.377135
H      -2.302559    1.114512    1.146750
H      -3.205403   -0.418748    1.242440
H      -1.869748   -1.129242    3.121448
H      -3.403269    0.462809   -3.059543
