18

O       0.080127    1.080217   -0.324669
N       0.047780   -0.227801    0.188296
C      -1.129267   -0.709198    0.139718
C      -2.380746   -0.081881   -0.433294
C      -3.464987   -1.187581   -0.314632
O      -4.391584   -1.217334   -1.370286
C      -2.651604   -2.504823   -0.211040
O      -2.304858   -2.946709   -1.527028
C      -1.427256   -2.115277    0.622228
H       1.010971    1.311529   -0.235704
H      -2.648505    0.843411    0.084462
H      -2.223282    0.194229   -1.482485
H      -4.034512   -1.045828    0.611503
H      -3.981844   -1.772415   -2.049836
H      -3.237363   -3.317224    0.224487
H      -1.521237   -2.464644   -1.816093
H      -0.584706   -2.801689    0.513201
H      -1.703932   -2.095635    1.684787
