22

C       0.173917    1.464782    0.375605
C      -0.026266    0.027154   -0.135301
C      -1.456500   -0.425047   -0.121933
C      -2.177737   -0.840221   -1.169077
C      -3.541249   -1.305494   -0.762173
C      -4.720261   -1.158798   -1.687545
N      -3.449952   -2.488157    0.149796
C      -3.585386   -1.124491    0.715534
C      -2.267165   -0.510809    1.166856
H       1.230709    1.746297    0.338131
H      -0.389262    2.178589   -0.234081
H      -0.161453    1.573057    1.411843
H       0.369631   -0.059073   -1.153433
H       0.572212   -0.653316    0.487198
H      -1.821088   -0.886135   -2.192803
H      -4.622644   -1.814815   -2.560670
H      -5.655922   -1.415681   -1.179531
H      -4.807776   -0.130288   -2.054310
H      -4.367852   -2.931826    0.188788
H      -4.506104   -0.868977    1.230519
H      -1.763396   -1.131014    1.919099
H      -2.420694    0.477949    1.618743
