24

C      -0.768697    1.558099    0.455493
C      -0.382909    0.091475    0.638875
N      -1.461561   -0.769176    0.165721
C      -1.436341   -1.177915   -1.235110
C      -1.217608   -2.179307   -0.152482
C       0.120376   -2.873586    0.027165
C       0.344673   -3.370782    1.442646
C      -0.214231   -4.703270    1.877479
C       1.275441   -4.525118    1.708987
H       0.012652    2.216864    0.847119
H      -0.910431    1.793244   -0.604569
H      -1.705310    1.775311    0.976337
H       0.577838   -0.096482    0.130904
H      -0.228024   -0.119940    1.704098
H      -2.379231   -1.125716   -1.774090
H      -0.563065   -0.900139   -1.827233
H      -2.061861   -2.811291    0.123867
H       0.153233   -3.730458   -0.659684
H       0.941914   -2.214883   -0.275988
H       0.333695   -2.589316    2.197894
H      -0.612838   -4.798274    2.881370
H      -0.738066   -5.298501    1.136039
H       1.748862   -5.000585    0.855711
H       1.895343   -4.496230    2.598309
