19

C       0.329468    1.496773    0.160471
C      -0.306728    0.136467   -0.153473
C       0.336473   -0.514867   -1.354999
O       1.662846   -1.040126   -1.192737
C       0.604949   -1.955508   -1.534771
C       0.264428   -2.982530   -0.476169
C       0.693692   -2.507622   -2.943208
H       1.396709    1.379738    0.370417
H       0.227887    2.186669   -0.684426
H      -0.142265    1.961860    1.031070
H      -0.226429   -0.516428    0.719953
H      -1.377788    0.262957   -0.359953
H       0.218447    0.066239   -2.275090
H       0.294112   -2.558105    0.527903
H      -0.731873   -3.403693   -0.650254
H       0.984159   -3.807854   -0.512488
H       1.452469   -3.296163   -2.997845
H      -0.262791   -2.942407   -3.253760
H       0.966706   -1.722600   -3.652595
