18

O      -0.008507    1.197522   -0.426874
C      -0.082937   -0.150871   -0.077201
C      -0.304988   -0.470092    1.384230
O      -0.496464    0.649144    2.217783
C      -1.406655   -0.744071    0.383797
C      -2.669882    0.054559    0.358090
C      -3.799165   -0.360727   -0.552557
C      -3.940341   -0.512572    0.942326
H      -0.161607    1.691939    0.390725
H       0.590176   -0.760527   -0.672691
H       0.200310   -1.310030    1.856910
H       0.359589    0.882073    2.594341
H      -1.542905   -1.799380    0.156558
H      -2.529999    1.122329    0.475672
H      -4.368266    0.415824   -1.051452
H      -3.668598   -1.261347   -1.143824
H      -3.903954   -1.515552    1.354949
H      -4.607739    0.158824    1.471366
