21

C      -0.095020    1.532099    0.160437
C       0.018220    0.014438   -0.015266
C       0.745858   -0.470441   -1.305448
C       0.002734   -0.004086   -2.581055
C       2.212158    0.023172   -1.346492
C       0.754064   -1.935962   -1.294024
C       0.767749   -3.145053   -1.296121
C       0.760625   -4.583448   -1.265943
O       1.333773   -5.293331   -2.061433
H       0.884871    2.015515    0.213934
H      -0.658481    2.000722   -0.651768
H      -0.620448    1.758256    1.093257
H       0.543950   -0.411837    0.846915
H      -0.984886   -0.427310   -0.009509
H       0.025097    1.086505   -2.656425
H       0.477573   -0.416514   -3.475042
H      -1.041390   -0.329491   -2.568859
H       2.755106   -0.283228   -0.447822
H       2.732119   -0.389179   -2.215034
H       2.245169    1.113894   -1.416120
H       0.170962   -5.015693   -0.431186
