19

C       0.094707    1.513314    0.084031
C      -0.003066    0.012359    0.009964
C       0.219950   -0.708093   -1.369458
C      -0.993870   -1.582357   -1.050421
C      -0.903697   -2.070704    0.407374
C       0.443659   -1.965465    1.109852
O       0.805021   -0.581033    1.028927
C      -1.394331   -0.692305    0.098675
O      -2.618619   -0.130039    0.388039
H       1.117257    1.843925   -0.121543
H      -0.577037    1.975794   -0.643893
H      -0.183101    1.863664    1.082784
H       0.029157   -0.040800   -2.214585
H       1.193762   -1.190533   -1.499761
H      -1.628119   -2.101584   -1.758779
H      -1.618135   -2.832566    0.696087
H       0.380660   -2.249513    2.167305
H       1.217481   -2.588576    0.639332
H      -2.710628   -0.074706    1.345949
