16

C      -0.092068    1.484880    0.008752
N      -0.005047    0.032284    0.027733
C       0.012086   -0.688436   -1.148741
N       0.032375   -1.959832   -1.269638
C       0.041151   -2.766632   -0.094639
O       0.054419   -3.979509   -0.177745
C       0.049169   -2.041213    1.166535
C       0.017564   -0.684661    1.214091
N      -0.073609    0.064281    2.381302
H       0.828104    1.953739    0.378379
H      -0.242088    1.809650   -1.021682
H      -0.934341    1.829102    0.614626
H       0.004158   -0.059266   -2.039285
H       0.082082   -2.616486    2.083891
H       0.039501   -0.501245    3.211099
H       0.514614    0.885995    2.421724
