21

C       0.545037    1.426696    0.122685
C       0.366466   -0.094822    0.101074
C       0.503388   -0.651720   -1.307388
O       1.852810   -0.483176   -1.823456
C       2.079093   -1.888901   -1.877421
C       3.099045   -2.394954   -0.877843
O       3.531212   -1.764702    0.051334
C       0.586680   -2.192926   -1.514364
C       0.243762   -3.147166   -0.378450
H       1.523878    1.696763   -0.282960
H      -0.221923    1.927058   -0.479312
H       0.478880    1.816709    1.142355
H       1.119916   -0.559607    0.744694
H      -0.621413   -0.369456    0.493882
H      -0.216845   -0.157739   -1.973735
H       2.386390   -2.227684   -2.878094
H       3.415784   -3.449133   -1.064414
H       0.041549   -2.487895   -2.414335
H       0.789749   -2.916676    0.539972
H      -0.826537   -3.101537   -0.152097
H       0.473242   -4.181600   -0.655356
