11

C      -0.031138    1.540816    0.031921
C       0.012153    0.010922   -0.016033
C       0.721691   -0.525834   -1.262306
H       0.979560    1.964591    0.030984
H      -0.558402    1.948312   -0.838161
H      -0.542523    1.901535    0.930057
H       0.515228   -0.368402    0.882311
H      -1.010706   -0.384570    0.020518
H       1.758512   -0.173766   -1.308715
H       0.740872   -1.620250   -1.275165
H       0.220234   -0.190512   -2.177290
