19

C      -0.187051   -1.050078   -0.490570
C      -0.046949    0.114074   -0.227005
C       0.138084    1.528030    0.071586
C       1.626675    1.955886    0.172726
C       2.357882    1.884719   -1.213784
C       2.090544    3.399694   -1.414703
C       1.766198    3.518337    0.097368
C       2.283550    1.307154    1.292900
C       2.841738    0.794137    2.226746
H      -0.315094   -2.080788   -0.710616
H      -0.344402    2.129249   -0.709409
H      -0.363101    1.780397    1.013737
H       3.418955    1.662491   -1.087336
H       1.934059    1.183727   -1.935986
H       2.922883    4.000706   -1.785261
H       1.222114    3.594399   -2.049324
H       0.883874    4.093756    0.390597
H       2.621033    3.863604    0.681510
H       3.331074    0.330260    3.046914
