18

O      -0.179494    1.474186   -0.157144
C       0.024313    0.079202    0.004546
C      -1.347615   -0.563979    0.026977
C      -2.196404   -0.567106   -1.270831
C      -2.700620   -1.982074   -0.894556
O      -2.933809   -2.948731   -1.865835
C      -1.460509   -2.127221    0.081848
C      -0.369826   -2.828470   -0.573470
N       0.461109   -3.387423   -1.154122
H       0.679633    1.896381   -0.248992
H       0.619785   -0.340320   -0.820103
H       0.557581   -0.145753    0.942826
H      -1.921262   -0.147180    0.859604
H      -2.937533    0.220731   -1.407677
H      -1.552472   -0.607956   -2.156447
H      -3.609845   -1.930051   -0.290093
H      -2.127954   -3.072111   -2.382606
H      -1.652444   -2.579592    1.057157
