16

C      -0.008688    1.541777   -0.105211
C      -0.029236    0.019990    0.041012
N      -1.379028   -0.534265   -0.033091
N      -2.040860   -0.789082    1.099816
N      -3.239561   -1.224937    0.786322
C      -3.352237   -1.246349   -0.557981
C      -2.165572   -0.802470   -1.118763
C      -1.768787   -0.650754   -2.516248
O      -2.503610   -0.891108   -3.446621
H       1.017326    1.906733   -0.004634
H      -0.388182    1.856677   -1.081453
H      -0.620885    2.007732    0.670974
H       0.582623   -0.462258   -0.726195
H       0.355173   -0.282286    1.016830
H      -4.246732   -1.575691   -1.060913
H      -0.728760   -0.296429   -2.683698
