19

C      -0.048901    1.492414    0.002102
C       0.001494   -0.003325    0.004664
C       0.080454   -0.830047   -1.071387
O       0.100290   -2.133099   -0.686269
C       0.041846   -2.144336    0.679792
C       0.048691   -3.488798    1.334070
O      -0.970489   -3.640572    2.317836
C      -0.024625   -0.868090    1.160133
C      -0.095828   -0.442289    2.595001
H       0.794243    1.925808    0.552750
H      -0.018716    1.887665   -1.017013
H      -0.963783    1.866275    0.477030
H       0.125422   -0.652323   -2.133959
H      -0.021118   -4.252938    0.546049
H       0.986335   -3.664263    1.873784
H      -1.802667   -3.380525    1.908200
H       0.830214    0.049864    2.917176
H      -0.907785    0.276279    2.757321
H      -0.272892   -1.301553    3.244917
