17

O       0.013662   -0.066273    0.126416
C       0.022639    1.134516   -0.054412
N      -1.116519    1.941590   -0.145489
C      -0.837416    3.374155   -0.019031
C       0.601769    3.449319   -0.571805
C       1.656064    4.407521    0.025150
N       2.770173    3.511156    0.424375
C       2.379805    2.191186    0.293351
C       1.135307    2.080579   -0.198451
H      -1.993168    1.548379    0.162263
H      -1.556727    3.966681   -0.592518
H      -0.869817    3.712205    1.029545
H       0.543452    3.555661   -1.663606
H       1.996127    5.157839   -0.692766
H       1.280845    4.938314    0.911756
H       3.723829    3.790437    0.255261
H       3.029834    1.405304    0.657591
