21

C       0.869099    1.644793    0.012918
C       0.726150    0.144696   -0.230643
N       0.783039   -0.564407    1.053177
C      -0.450635   -0.781963    1.779416
C       0.278438   -1.939228    1.174066
C      -0.373778   -2.651748    0.018409
O      -1.233425   -2.143642   -0.686953
N       0.084900   -3.923222   -0.171732
C      -0.413285   -4.784347   -1.225403
H       1.793364    1.866640    0.554336
H       0.882322    2.185774   -0.938260
H       0.030630    2.027141    0.604547
H      -0.192878   -0.072266   -0.787527
H       1.567662   -0.216427   -0.834225
H      -0.413961   -0.627617    2.854874
H      -1.386616   -0.520436    1.289411
H       0.897107   -2.565457    1.816022
H       0.816424   -4.265543    0.428254
H      -1.207678   -4.241120   -1.738271
H       0.373134   -5.030844   -1.947976
H      -0.818762   -5.716807   -0.817667
