25

C      -0.678456    1.049125   -0.456924
C      -0.094164   -0.331416   -0.149393
C       0.774856   -0.353496    1.112450
O      -0.080049    0.007581    2.193641
C       0.555640    0.534920    3.334247
C       1.431339   -1.717625    1.322225
C       2.395347   -2.251053    0.222239
C       3.281562   -2.857662    1.342070
C       2.592248   -1.898216    2.346649
H       0.115424    1.780971   -0.645952
H      -1.319547    1.018406   -1.343281
H      -1.273152    1.408683    0.386127
H      -0.904758   -1.058658   -0.014963
H       0.507806   -0.682335   -0.995098
H       1.569551    0.409534    1.012883
H       1.237211    1.360596    3.075395
H      -0.230379    0.924931    3.987283
H       1.127047   -0.219034    3.892527
H       0.641229   -2.451154    1.520304
H       1.986871   -2.924517   -0.535056
H       2.906365   -1.426610   -0.287902
H       3.022904   -3.902124    1.538631
H       4.365863   -2.785079    1.229226
H       3.163039   -0.971355    2.468210
H       2.345155   -2.286414    3.337849
