20

C       0.216507    1.449352    0.301872
C      -0.249534    0.073984   -0.190949
C       0.571443   -0.450595   -1.347147
C       0.517054    0.253687   -2.693111
C       0.937902   -0.798989   -3.731373
O       1.225491   -0.574097   -4.876737
C       0.921327   -2.186904   -3.069319
C       0.827718   -1.907953   -1.586255
N       1.868118   -1.054648   -0.989587
H       1.268250    1.411070    0.601623
H       0.113871    2.213558   -0.475960
H      -0.371102    1.775791    1.164921
H      -0.184529   -0.648340    0.629754
H      -1.304166    0.120887   -0.493092
H      -0.502829    0.585185   -2.931531
H       1.159988    1.136649   -2.768403
H       0.042889   -2.735873   -3.433843
H       1.802367   -2.764227   -3.368694
H       0.430047   -2.672563   -0.925342
H       2.594543   -0.829499   -1.667769
