16

C       0.040196    1.546744    0.131163
C       1.526232    1.829796   -0.012397
C       2.398666    0.790444    0.679524
C       1.732927   -0.175058    1.645746
O       0.441432   -0.598063    1.192144
C       0.047636    0.011370   -0.014047
O       0.994482   -0.253529   -1.039836
C       2.055825    0.641956   -0.777272
H      -0.392913    1.840933    1.090116
H      -0.528419    2.017747   -0.677074
H       1.890716    2.836178   -0.175446
H       3.412068    1.079427    0.939483
H       2.353883   -1.072127    1.767349
H       1.623142    0.286577    2.637477
H      -0.900325   -0.447066   -0.295037
H       2.786805    0.681426   -1.574203
