19

O      -0.749902    1.398027    0.475893
C       0.377401    0.978809    0.495211
C       1.617749    1.832424    0.178861
O       2.691484    1.274098    0.203543
C       1.388100    3.295391   -0.108520
C       1.067563    4.064892    1.217438
C       1.626614    5.471512    0.960165
C       2.940330    5.196403    0.213149
C       2.604860    4.024873   -0.738732
H       0.635410   -0.075019    0.733774
H       0.503635    3.361472   -0.749803
H       0.002695    4.040628    1.455452
H       1.606266    3.607588    2.056769
H       0.936444    6.034155    0.319094
H       1.762187    6.046088    1.881093
H       3.326952    6.071352   -0.316173
H       3.709625    4.886726    0.930064
H       3.446929    3.340650   -0.861010
H       2.336147    4.396527   -1.731767
