19

C       0.518465    1.210197    0.601037
C      -0.034756   -0.118754    0.078539
O      -0.015920   -1.124135    1.084648
C      -1.521935    0.020781   -0.277263
O      -1.991599    0.974228   -0.841142
C       0.688111   -0.586128   -1.208659
C       0.908461    0.452845   -2.287895
C       1.543254   -1.783038   -1.155518
O       0.221794   -1.856216   -1.690784
H       1.606736    1.161696    0.719053
H       0.275136    2.026274   -0.080988
H       0.069484    1.432562    1.573133
H       0.807026   -1.041546    1.576230
H      -2.129253   -0.855810    0.026658
H       1.654258    1.193531   -1.984185
H       1.258841   -0.040272   -3.197535
H      -0.022395    0.980067   -2.513996
H       2.349610   -1.884075   -1.881689
H       1.684664   -2.314881   -0.218519
