19

C      -0.185661    1.534697    0.114586
C       0.075662    0.052125   -0.001574
C      -0.782500   -0.923636    0.771399
C       0.680418   -0.766745    1.122527
C       1.657729   -1.769073    0.527229
C       1.263926   -1.858196   -0.966255
C       0.669451   -0.472774   -1.307404
H       0.722180    2.115521   -0.089692
H      -0.952989    1.863134   -0.597048
H      -0.533258    1.801626    1.117925
H      -1.501934   -0.498478    1.463798
H      -1.123024   -1.839809    0.298348
H       0.927071   -0.302544    2.072150
H       2.679093   -1.382367    0.631598
H       1.633725   -2.747494    1.020217
H       2.109572   -2.120200   -1.607620
H       0.510316   -2.638638   -1.111287
H      -0.061828   -0.522013   -2.122698
H       1.462295    0.213979   -1.632313
