14

C      -0.051185    1.605400   -0.078169
C      -0.029761    0.104654    0.016284
O       1.217507   -0.570778   -0.200040
C       0.672934   -0.626808    1.118288
C       1.352206    0.076327    2.170431
C       1.907582    0.636861    3.076980
C      -1.191134   -0.639879   -0.582079
O      -2.219980   -0.120498   -0.926783
H       0.765158    2.042892    0.497391
H       0.041645    1.913984   -1.123424
H      -1.005783    1.983411    0.296359
H       0.294506   -1.611243    1.396182
H       2.403944    1.133702    3.874280
H      -1.007125   -1.732546   -0.685680
