18

C      -0.099102    1.635930   -0.003156
C       0.017802    0.123218   -0.086485
C      -1.353790   -0.573450   -0.074022
O      -2.057451   -0.320917    1.119659
C       0.908727   -0.388526   -1.228543
O       1.638510   -1.465422   -0.635927
C       1.580528   -1.351962    0.723006
N       2.195167   -2.048717    1.568505
O       0.737669   -0.352602    1.079978
H       0.881514    2.088355    0.163329
H      -0.514624    2.030286   -0.936164
H      -0.767677    1.914439    0.813650
H      -1.967977   -0.189025   -0.895704
H      -1.206048   -1.652706   -0.241296
H      -1.485572   -0.606285    1.842951
H       0.338561   -0.777010   -2.076624
H       1.607341    0.378065   -1.582439
H       2.804454   -2.713693    1.098176
