18

C       0.031427    1.471121   -0.030554
O       1.495094    1.503846   -0.040417
C       1.519274    0.096836   -0.228183
C       2.453765   -0.901971    0.414277
C       1.731276   -2.215185   -0.036100
C       0.914768   -1.828411   -1.287261
C       1.191346   -0.437079   -1.654502
N      -0.211414   -0.814040   -1.228182
C       0.019146   -0.075954    0.044840
H      -0.363387    1.995239    0.844120
H      -0.396183    1.891680   -0.947376
H       3.470394   -0.842055    0.010377
H       2.503843   -0.797402    1.501540
H       2.445114   -2.999097   -0.302599
H       1.096461   -2.617773    0.759394
H       0.721280   -2.581908   -2.041261
H       1.439853   -0.014849   -2.620042
H      -0.408780   -0.518708    0.947136
