16

C      -0.034634    1.498047   -0.017411
C      -0.003865   -0.005588    0.024339
N      -0.106369   -0.636047   -1.147219
N      -0.088268   -1.966892   -1.203472
C       0.032656   -2.690931   -0.089165
C       0.042533   -4.185963   -0.257651
C       0.144378   -2.085511    1.171844
C       0.125712   -0.711983    1.229899
H       0.883518    1.924588    0.401642
H      -0.139031    1.831977   -1.050633
H      -0.871841    1.893215    0.568682
H       0.972318   -4.621338    0.125091
H      -0.783076   -4.651672    0.291955
H      -0.053846   -4.434238   -1.315492
H       0.242050   -2.691586    2.067022
H       0.207955   -0.181166    2.173128
