17

C       0.005464    1.572066    0.081301
C       0.025851    0.068921    0.091952
C      -1.283675   -0.785981    0.186945
C      -0.398314   -1.855859    0.823473
O      -0.794439   -2.940444    1.568836
C       0.935767   -1.888720    0.027017
C       0.661893   -0.890252    1.189099
C       0.881242   -0.735237   -0.917672
O       1.438350   -0.438675   -1.938335
H       1.021215    1.979354    0.080293
H      -0.495854    1.936008   -0.821645
H      -0.526877    1.973175    0.949507
H      -1.981951   -0.367355    0.918372
H      -1.804912   -1.013990   -0.750115
H      -1.110125   -3.626551    0.969459
H       1.573374   -2.761986    0.051352
H       1.269846   -0.714780    2.062950
