21

C      -0.126638    1.525240    0.038711
C      -0.024484   -0.003111    0.005196
C      -1.420363   -0.591525   -0.209854
C       1.143493   -0.612063   -0.841457
C       2.129391   -0.215311    0.278285
C       0.880286   -0.611470    1.141671
O       0.655721   -0.214421    2.454294
C       0.819911   -2.110330    0.792144
O       0.996088   -2.036304   -0.637171
H       0.813690    2.037287    0.244276
H      -0.510135    1.898580   -0.917245
H      -0.835178    1.826834    0.817184
H      -1.947995   -0.039854   -0.995315
H      -1.384267   -1.638959   -0.511524
H      -2.018469   -0.507872    0.704613
H       1.298122   -0.406142   -1.899048
H       3.025360   -0.834471    0.367439
H       2.384131    0.840104    0.321976
H       1.281192   -0.667770    3.030226
H       1.633919   -2.688992    1.249584
H      -0.135888   -2.580154    1.046319
