17

N      -0.061918    1.216437    0.438429
C      -0.025804    0.034844    0.008529
O       1.112233   -0.628042   -0.395058
C       0.764195   -1.879952   -0.968342
C       1.386088   -2.246387   -2.280174
C       1.815558   -2.941227   -0.996816
C      -0.689124   -2.075674   -0.654518
C      -1.095552   -1.983171    0.766076
N      -1.180048   -0.791182   -0.119529
H       0.873873    1.621251    0.433226
H       0.787000   -2.798069   -2.997370
H       2.074696   -1.529481   -2.712138
H       2.786334   -2.680221   -0.591093
H       1.512530   -3.969305   -0.830548
H      -1.316716   -2.572674   -1.386976
H      -2.061307   -2.363458    1.080735
H      -0.318618   -1.991683    1.525379
