21

O      -0.138680    1.391081    0.059401
C      -0.039606   -0.001000    0.025913
C       0.995061   -0.695725    0.898572
C       0.515338   -2.165246    0.874570
C      -1.025934   -2.033486    0.957257
C      -1.297265   -0.832113    0.064214
C      -0.457735   -0.770822   -1.205482
C       0.325419   -1.992924   -1.667765
C       0.899585   -2.806901   -0.471578
H       0.589880    1.753557   -0.456266
H       2.023701   -0.588112    0.531701
H       0.953639   -0.271157    1.908582
H       0.929107   -2.750794    1.699953
H      -1.533790   -2.949064    0.632019
H      -1.351263   -1.822618    1.982945
H      -2.267722   -0.349665    0.064862
H      -0.880856   -0.154426   -1.993880
H      -0.327739   -2.626384   -2.279055
H       1.136232   -1.673649   -2.332994
H       1.990897   -2.870606   -0.543460
H       0.527936   -3.836859   -0.500258
