12

O       0.026530    1.297565   -0.076321
C       0.026930   -0.027504    0.012324
N       0.551514   -0.719005   -1.010259
C       0.519969   -2.031231   -0.858593
C      -0.028715   -2.600626    0.296930
C      -0.086113   -4.066424    0.511664
O       0.332396   -4.870294   -0.287010
N      -0.530867   -1.831160    1.268284
N      -0.510557   -0.520749    1.139572
H       0.435077    1.525641   -0.923909
H       0.927709   -2.657060   -1.647241
H      -0.549699   -4.356922    1.475329
