19

C      -0.013969    1.522487   -0.117093
O       1.338476    1.906457    0.136515
C       2.032158    0.800316    0.701104
C       3.438688    0.613321    0.140367
C       4.045599   -0.673022    0.737415
C       3.088861   -1.841821    0.728287
C       1.763785   -1.716564    0.552190
C       1.173502   -0.403760    0.390578
C      -0.014955    0.017688   -0.048918
H      -0.693337    1.974689    0.627210
H      -0.312862    1.908875   -1.101548
H       2.107981    0.928099    1.797797
H       3.368584    0.523319   -0.949508
H       4.069482    1.479592    0.361831
H       4.955793   -0.943748    0.189049
H       4.377399   -0.489495    1.770846
H       3.521545   -2.830289    0.860150
H       1.123762   -2.593393    0.509982
H      -0.859625   -0.592901   -0.342704
