21

C      -0.162740    1.521279   -0.044764
C      -0.031678   -0.002289   -0.137653
C       0.896571   -0.505552   -1.260305
C       2.356271   -0.071909   -1.057599
C       0.802487   -2.016321   -1.393181
C      -0.317279   -2.653768   -2.175272
C       1.096164   -2.693318   -2.707206
H       0.788276    2.002056    0.204280
H      -0.510168    1.946268   -0.993617
H      -0.884270    1.805396    0.727903
H       0.326145   -0.399098    0.822832
H      -1.025878   -0.438778   -0.293078
H       0.541213   -0.070825   -2.207371
H       2.990834   -0.456531   -1.861988
H       2.462001    1.016686   -1.039808
H       2.749426   -0.460209   -0.110073
H       1.123065   -2.556216   -0.503755
H      -0.755742   -3.574028   -1.805029
H      -1.023779   -1.996655   -2.673028
H       1.331250   -2.061791   -3.558407
H       1.624112   -3.640654   -2.701097
