15

C       0.062184    1.543939   -0.308367
C      -0.023635    0.079165    0.024624
O       1.178834   -0.690046    0.005067
C       0.511085   -0.548520    1.258474
C       1.206200    0.172189    2.336919
C       1.130014    0.032610    3.691935
N       1.976549    0.964047    4.238791
N       2.547276    1.632162    3.344215
O       2.072159    1.146511    2.068769
H       0.915006    2.018545    0.176930
H       0.162683    1.668713   -1.391344
H      -0.856017    2.053025    0.002918
H      -0.874521   -0.444120   -0.417734
H       0.016172   -1.451191    1.617107
H       0.552782   -0.645254    4.296678
