21

C       0.004385    1.618271    0.178302
C       0.428998    0.171114    0.054415
C       1.766615   -0.266905    0.622319
C       0.474599   -0.709713    1.267324
O       0.043535   -0.152877    2.477052
C       0.755359   -0.550575    3.615199
C       1.819805    0.457741    4.064344
C       2.480202    0.143648    5.395918
O       2.100719    1.437657    3.417408
H       0.340666    2.035159    1.129670
H       0.431684    2.217172   -0.633096
H      -1.085686    1.716577    0.131084
H       0.111809   -0.324283   -0.859692
H       2.354151   -1.007768    0.090042
H       2.336101    0.491513    1.145909
H       0.186276   -1.755741    1.153062
H       0.039981   -0.670382    4.441810
H       1.243528   -1.528871    3.482217
H       2.836657   -0.891712    5.426400
H       3.311705    0.828590    5.564391
H       1.752156    0.255060    6.207998
