22

C       0.579438    1.250013   -0.248275
C       0.081853   -0.112396    0.203845
O      -1.203516   -0.327533   -0.349271
C      -1.759943   -1.568197   -0.017312
C      -2.351266   -1.757286    1.419387
C      -3.585331   -2.368565    0.745118
C      -4.179005   -3.690108    1.041211
N      -4.952067   -2.443540    1.241238
C      -3.167146   -1.799896   -0.613687
H       1.575051    1.448094    0.159882
H       0.634960    1.294630   -1.339630
H      -0.098731    2.037872    0.091654
H       0.772048   -0.907279   -0.126535
H       0.038733   -0.161277    1.304165
H      -1.064345   -2.383764   -0.266872
H      -1.799288   -2.370723    2.136178
H      -2.572064   -0.780345    1.863768
H      -4.540227   -4.322744    0.234095
H      -3.821007   -4.230531    1.914692
H      -4.978734   -2.206483    2.230646
H      -3.653185   -0.841040   -0.815652
H      -3.249072   -2.443164   -1.492155
