17

O       0.073719    1.400961   -0.078445
C       0.023036   -0.011271   -0.164111
C      -1.385294   -0.556497    0.123374
C      -1.458598   -2.042275    0.005150
C      -1.625558   -2.901774   -1.193763
C      -2.597671   -3.037576   -0.006746
C      -1.845409   -3.692751    1.117691
O      -2.004192   -4.567461    1.903884
O      -0.756286   -2.830397    1.024754
H      -0.015475    1.647026    0.847732
H       0.312833   -0.262634   -1.189614
H       0.750175   -0.489390    0.507635
H      -1.692569   -0.262958    1.135162
H      -2.092999   -0.102587   -0.578544
H      -2.069373   -2.432396   -2.067033
H      -0.910618   -3.690630   -1.403112
H      -3.667080   -2.916200   -0.097496
