18

O      -0.165228    1.455698    0.168902
C      -0.005911    0.044324    0.039226
C       0.748680   -0.616113    1.206135
C       0.267181   -0.346067    2.611100
C      -0.187942   -1.589066    1.888740
C      -1.502724   -1.594347    1.124989
C      -2.362374   -0.355592    1.087462
C      -1.383845   -0.621211   -0.027853
H       0.706436    1.832637    0.325935
H       0.534724   -0.181641   -0.892466
H       1.797916   -0.850327    1.057200
H       0.989839   -0.477611    3.410069
H      -0.424248    0.470354    2.779155
H       0.170928   -2.545756    2.251405
H      -1.987472   -2.555540    0.996593
H      -3.413212   -0.493065    0.854239
H      -2.173193    0.464151    1.768474
H      -1.778443   -0.851268   -1.010960
