18

O      -0.112331    1.504613   -0.056873
C       0.020341    0.092262    0.110029
C      -1.389781   -0.472997    0.028799
O      -2.215754    0.160397    0.963838
C      -1.980484   -0.760124   -1.371383
C      -1.148735   -2.066130   -1.556389
C      -2.436132   -2.822551   -1.851225
N      -2.927815   -1.848581   -0.786166
C      -1.562027   -1.991039   -0.052707
H       0.699267    1.927669    0.236013
H       0.672417   -0.337928   -0.661502
H       0.442738   -0.147245    1.096613
H      -1.965015    1.093301    0.941625
H      -2.336220   -0.075889   -2.143412
H      -0.144240   -2.178635   -1.978729
H      -2.910462   -2.676927   -2.827418
H      -2.502278   -3.872350   -1.546190
H      -1.428039   -2.748713    0.722085
