18

C       0.084849    1.542735   -0.005905
C      -0.025251    0.013451   -0.033044
O      -1.386500   -0.385029   -0.039295
C       0.739348   -0.621005   -1.208648
C       1.950391   -1.256293   -0.560582
N       2.935004   -1.758974   -1.339049
C       1.890719   -1.230255    0.800812
C       0.666629   -0.588078    1.217792
O       0.152314   -0.507285    2.320461
H       1.128141    1.871634   -0.063573
H      -0.469277    1.969672   -0.847269
H      -0.343009    1.923070    0.926268
H      -1.641319   -0.406021    0.895195
H       0.113335   -1.385320   -1.682066
H       1.030210    0.099249   -1.981712
H       2.782667   -1.878251   -2.325716
H       3.680857   -2.296789   -0.930319
H       2.607959   -1.671014    1.480921
