19

C      -0.104650    1.486648   -0.067360
C      -0.006808   -0.014399    0.097589
C       1.270912   -0.752282   -0.199311
C       0.760990   -0.680013    1.225791
C       1.505951    0.118157    2.234185
O       0.918421    0.280002    3.517265
C       2.125392   -0.472862    3.460408
C       2.055642   -1.939945    3.738601
O       1.053405   -2.607968    3.700591
H       0.844828    1.988873    0.140949
H      -0.384654    1.740436   -1.095435
H      -0.860327    1.913699    0.600568
H      -0.919722   -0.540699   -0.168556
H       1.234046   -1.709582   -0.706869
H       2.141666   -0.152282   -0.448910
H       0.315413   -1.577640    1.637622
H       2.006691    1.013504    1.861854
H       3.005262    0.023680    3.873789
H       3.045646   -2.390443    3.977763
