17

O      -0.035568    1.261828    0.248222
C       0.051064   -0.104517   -0.020042
C       1.264313   -0.946490    0.580843
C       0.901882   -1.858015   -0.598416
C      -0.067299   -2.756777   -0.309222
C      -1.368347   -2.172929   -0.700902
C      -1.178099   -1.002777   -1.631131
C      -1.402080   -0.705308   -0.161372
C       0.312025   -0.702849   -1.437604
H       0.839285    1.645788    0.121335
H       2.180725   -0.345554    0.485369
H       1.199408   -1.370029    1.584684
H      -0.000352   -3.441923    0.531485
H      -2.312147   -2.707505   -0.689983
H      -1.806184   -0.800403   -2.487031
H      -2.274787   -0.306211    0.337622
H       0.934538   -0.198333   -2.174880
