21

C      -0.662999    1.381156    0.429247
C       0.146131    0.157268   -0.020200
C       0.958576   -0.487270    1.091992
C       0.210043   -1.248594    2.185109
C       0.992477   -2.021539    1.181027
O       0.348403   -2.731829    0.168451
C       2.261079    0.122794    1.535702
C       2.920903    1.158114    0.642181
O       2.801922   -0.245514    2.560137
H      -0.022528    2.178776    0.820499
H      -1.235484    1.796274   -0.406087
H      -1.370356    1.115743    1.221529
H      -0.528978   -0.600339   -0.427070
H       0.809116    0.435592   -0.847167
H       0.607218   -1.170976    3.190283
H      -0.870903   -1.266714    2.090632
H       1.943009   -2.440308    1.506260
H      -0.195861   -3.410263    0.580897
H       3.123421    0.734363   -0.348003
H       2.274224    2.027729    0.489922
H       3.858196    1.473674    1.101233
