21

C      -0.007837    1.636101    0.065974
C       0.083864    0.115684    0.007459
C       0.770604   -0.599930   -1.152391
O       0.305431   -0.734887   -2.446913
C       2.271505   -0.730444   -0.813555
C       2.488773   -0.128165    0.568968
C       1.077124   -0.691756    0.919751
C       0.704351   -1.032883    2.339031
C       1.249315   -1.719533   -0.281142
H       0.958592    2.117709   -0.109920
H      -0.703634    2.005944   -0.695696
H      -0.381206    1.975661    1.038697
H      -0.914200   -0.322505    0.134573
H       0.604023    0.025846   -2.957036
H       2.989419   -0.903800   -1.605895
H       3.267210   -0.667568    1.118905
H       2.658472    0.949524    0.672721
H       0.642025   -0.127265    2.954750
H      -0.267875   -1.535384    2.387832
H       1.447900   -1.693921    2.797807
H       1.163577   -2.793094   -0.363412
