13

O       0.489291    1.219102   -0.239269
C       0.221780   -0.083901   -0.100983
C       0.257175   -0.919349   -1.221699
C      -0.033076   -2.250935   -0.981772
C      -0.029536   -3.251291   -2.096624
O       0.218358   -2.973229   -3.243026
N      -0.332220   -2.735003    0.237212
C      -0.332984   -1.841673    1.218915
N      -0.070910   -0.535389    1.115923
H       0.412211    1.613081    0.642229
H       0.494415   -0.558276   -2.213354
H      -0.278948   -4.279102   -1.764699
H      -0.571396   -2.204445    2.215480
