23

O      -0.220573    1.533734   -0.268229
C      -0.006041    0.136111   -0.064955
C      -1.419728   -0.453959    0.057135
C      -1.600899   -1.956569   -0.193710
C      -0.903320   -2.935957    0.761676
C       0.638285   -2.902572    0.817370
C       1.382040   -2.725266   -0.523136
O       1.821018   -1.401026   -0.782106
C       0.867625   -0.447233   -1.205032
H       0.627224    1.980743   -0.177889
H       0.556823   -0.022408    0.865656
H      -1.820114   -0.186564    1.042316
H      -2.031149    0.087662   -0.675124
H      -2.676868   -2.164665   -0.150364
H      -1.310437   -2.189933   -1.224750
H      -1.291424   -2.792340    1.778461
H      -1.214081   -3.946611    0.466797
H       0.991380   -2.109866    1.484810
H       0.972935   -3.841300    1.274611
H       2.305875   -3.311681   -0.502043
H       0.780900   -3.103937   -1.365068
H       0.247839   -0.838960   -2.026162
H       1.456534    0.379300   -1.618413
