16

C      -0.477018    1.852170   -0.581049
C      -0.125156    0.425136   -0.108434
C      -1.295263   -0.434261   -0.018323
C      -2.254829   -1.169042    0.033182
C      -3.388561   -2.055445    0.086934
O      -3.372753   -3.194386   -0.322638
C       1.029167   -0.149856   -0.979026
N       0.894894   -1.436880   -1.376338
O       1.991471    0.543669   -1.238259
H       0.446493    2.426089   -0.664142
H      -0.963275    1.825825   -1.559723
H      -1.151168    2.335636    0.129153
H       0.308061    0.502050    0.899241
H      -4.298874   -1.614097    0.538953
H       0.064878   -1.971033   -1.181741
H       1.628253   -1.840658   -1.935351
