12

N      -0.077664    1.382938    0.070198
C       0.060598    0.042828   -0.201382
O       1.064292   -0.494629   -0.576862
N      -1.174616   -0.665724   -0.049404
C      -2.457196   -0.184919   -0.191841
N      -3.356644   -1.094062   -0.075736
O      -2.645114   -2.288070    0.173049
C      -1.290600   -2.056737    0.180011
O      -0.453028   -2.877821    0.373542
H       0.794529    1.890375    0.048167
H      -0.727921    1.676344    0.782911
H      -2.686039    0.845586   -0.416445
