16

O      -0.120779    1.431148    0.061851
C       0.025958    0.072263    0.034554
C       0.043414   -0.976244   -1.050490
C       1.298087   -1.642517   -0.490338
C       0.929878   -0.960119    0.860918
O       1.895947   -0.549213    1.764706
C      -0.382722   -1.671369    1.302649
C      -1.021265   -0.991130    0.091852
H       0.676002    1.832406   -0.304060
H      -0.270382   -0.884142   -2.081886
H       1.361975   -2.737213   -0.498988
H       2.209897   -1.210091   -0.912134
H       2.258345   -1.327093    2.203922
H      -0.373684   -2.766920    1.354778
H      -0.759494   -1.250088    2.238503
H      -2.071588   -0.890886   -0.146911
