18

C       0.031705    1.479426    0.054042
C      -0.012689   -0.013967   -0.016776
C      -0.049503   -0.775171   -1.118713
C      -0.032716   -2.230677   -0.807369
C       1.211884   -2.737007   -0.077172
C       0.020236   -2.309107    0.714784
O      -0.610567   -3.311039    1.451453
C      -0.022459   -0.871687    1.236794
H       0.947306    1.833345    0.545350
H      -0.010585    1.929181   -0.941981
H      -0.806842    1.875034    0.642351
H      -0.059230   -0.388200   -2.132587
H      -0.599416   -2.941705   -1.398546
H       1.382762   -3.807935   -0.103228
H       2.104459   -2.119346   -0.088627
H      -1.553534   -3.112784    1.474513
H       0.817278   -0.647923    1.906831
H      -0.935999   -0.701613    1.828077
