18

O      -0.040233    1.396529   -0.011734
C       0.004596   -0.007783   -0.000923
C       0.348513   -0.756655   -1.316415
C      -0.841083   -1.714472   -1.027102
C      -1.372912   -0.698551    0.041603
C      -1.555594   -1.196816    1.443847
N      -2.624239   -1.637009    1.951202
O      -0.360242   -1.106249    2.111816
C       0.679093   -0.588470    1.269841
H       0.855872    1.732804   -0.123920
H       0.149256   -0.112965   -2.176429
H       1.347206   -1.190806   -1.413843
H      -1.517479   -1.919428   -1.856665
H      -0.537258   -2.665589   -0.584086
H      -2.209608   -0.095980   -0.305854
H      -2.470585   -1.921113    2.920546
H       1.380831   -1.399158    1.040925
H       1.205986    0.194049    1.823427
