21

C       0.234392    1.002943    0.603769
N      -0.228033    0.268566   -0.580861
C      -1.287088   -0.635801   -0.362963
C      -1.328560   -1.975143   -0.024791
C      -0.152353   -2.865854    0.236101
C      -2.711260   -2.353204    0.030718
C      -3.245557   -3.713563    0.361035
C      -3.451808   -1.231723   -0.261765
N      -2.583074   -0.195004   -0.498778
H       1.036819    1.687449    0.311676
H      -0.590068    1.601832    1.001449
H       0.599914    0.354980    1.415207
H       0.550107   -0.200575   -1.027142
H      -0.195452   -3.320879    1.233500
H      -0.089209   -3.692034   -0.483803
H       0.788538   -2.308986    0.175158
H      -2.930586   -4.048804    1.357472
H      -4.339587   -3.722120    0.343223
H      -2.899058   -4.474275   -0.349953
H      -4.519936   -1.091609   -0.315595
H      -2.823358    0.725625   -0.821895
