18

N       0.189052    1.258813   -0.528831
C       0.085614   -0.106884   -0.196233
C      -0.687610   -1.134808   -0.686481
C      -0.299686   -2.333930   -0.001005
C       0.693158   -1.983902    0.883906
N       0.918615   -0.629961    0.758746
C      -0.836200   -3.696713   -0.188802
C      -2.224008   -3.926555   -0.675217
N      -1.081639   -4.232280   -1.549668
H      -0.235293    1.860668    0.171525
H      -0.269848    1.445288   -1.411812
H      -1.464193   -1.030491   -1.430101
H       1.247193   -2.581214    1.589661
H       1.655788   -0.110015    1.202033
H      -0.410482   -4.439048    0.482693
H      -2.784826   -4.793467   -0.335223
H      -2.832044   -3.050708   -0.886412
H      -0.951378   -3.476985   -2.219544
