17

C      -0.494971    0.938459    0.935772
C       0.160811   -0.277852    0.296372
C       0.332515   -0.316927   -1.247043
O       1.784620   -0.413241   -1.086941
C       1.692017   -0.330482    0.285637
O       2.580540   -0.304155    1.071795
C      -0.309038   -1.493338   -1.969359
C       0.516809   -2.745360   -2.147440
O      -1.452419   -1.381940   -2.345807
H      -0.078598    1.868966    0.538496
H      -1.572426    0.935908    0.749500
H      -0.332343    0.928278    2.017036
H      -0.261732   -1.204172    0.698647
H       0.059488    0.614156   -1.748856
H      -0.086024   -3.513334   -2.632351
H       1.406330   -2.523641   -2.746286
H       0.884234   -3.109779   -1.181500
