15

N       0.001350    1.328424   -0.121830
C      -0.104086   -0.052662   -0.111718
C      -1.130475   -0.934710   -0.022257
C      -2.596549   -0.643778   -0.009110
O      -2.909794    0.544341   -0.742858
N      -0.599211   -2.237726    0.076781
C       0.670743   -2.048130    0.030172
O       1.662126   -2.940602    0.056820
O       1.078098   -0.765363   -0.081349
H       0.669326    1.672993   -0.802674
H      -0.915357    1.732742   -0.280495
H      -3.144565   -1.515671   -0.392211
H      -2.968080   -0.452743    1.004985
H      -2.676548    0.373362   -1.662069
H       1.246302   -3.809261    0.125466
