19

C      -1.384438   -1.503497    2.513246
N      -0.856455   -1.701014    1.176733
C      -1.207045   -0.982407    0.189011
C      -0.412822   -1.164338   -1.098754
O       0.640139   -0.210960   -1.206546
N      -2.252143   -0.018377    0.172063
C      -3.558102   -0.297797    0.777775
C      -2.136483    1.154873   -0.553320
O      -3.034052    1.960699   -0.659057
H      -2.209320   -2.197893    2.713588
H      -0.591910   -1.743694    3.228512
H      -1.735116   -0.483248    2.711057
H      -0.025115   -2.188686   -1.096006
H      -1.042105   -1.020029   -1.980842
H       1.218173   -0.346916   -0.446803
H      -3.689376    0.212839    1.735805
H      -4.330101    0.062793    0.095945
H      -3.664751   -1.372602    0.922418
H      -1.138305    1.283621   -0.998587
