24

C      -0.004120    1.497438    0.010070
C      -0.027432   -0.033034    0.001701
C      -1.444199   -0.585453    0.012682
O      -1.364342   -2.012382    0.003912
C      -2.540280   -2.669832    0.011223
N      -2.578336   -3.926895    0.005178
C      -3.888416   -4.564554    0.014499
C      -4.041440   -5.410866   -1.255059
C      -4.017062   -5.424013    1.277920
H       1.023320    1.871305    0.001944
H      -0.514431    1.910670   -0.866921
H      -0.496827    1.900732    0.901633
H       0.489673   -0.418529   -0.883949
H       0.507131   -0.428399    0.872509
H      -1.984392   -0.246003    0.908279
H      -2.002035   -0.236072   -0.868156
H      -3.427847   -2.016368    0.023300
H      -4.696028   -3.808896    0.026188
H      -3.249516   -6.164589   -1.304818
H      -5.010270   -5.920855   -1.266573
H      -3.969446   -4.786503   -2.150583
H      -3.927783   -4.808965    2.178320
H      -4.985534   -5.934205    1.302799
H      -3.224393   -6.178124    1.304605
