19

O       0.212553    1.006370    0.748904
C      -0.155794    0.202568   -0.363671
C      -1.442927   -0.471466   -0.199104
C      -2.524422   -0.985237   -0.057370
C      -3.812922   -1.648656    0.174864
O      -3.644088   -3.039419    0.443544
C      -4.602464   -0.940436    1.263811
C      -5.518446    0.201849    0.904614
C      -6.093577   -1.126558    1.328198
H      -0.522224    1.602331    0.928100
H      -0.171749    0.789853   -1.295840
H       0.644475   -0.537780   -0.473202
H      -4.404004   -1.619520   -0.749776
H      -2.994505   -3.118940    1.150845
H      -4.070381   -0.860671    2.208241
H      -5.585026    1.039984    1.588937
H      -5.595476    0.478874   -0.141919
H      -6.554722   -1.749123    0.568724
H      -6.558260   -1.201893    2.304749
