20

C       0.242505    1.491108   -0.314196
C      -0.452155    0.343170    0.412352
N       0.321519   -0.065454    1.579680
C      -0.162728   -0.950939    2.339797
O      -1.379714   -1.570828    2.153444
C      -1.615285   -2.515567    3.212772
C      -1.861322   -3.903592    2.625067
C      -0.389921   -2.403004    4.080703
C       0.440397   -1.501048    3.558380
H       1.243305    1.191703   -0.639724
H      -0.330673    1.800131   -1.194420
H       0.352198    2.355603    0.347654
H      -1.468420    0.641569    0.709230
H      -0.581566   -0.510416   -0.269791
H      -2.514002   -2.186643    3.755409
H      -0.979339   -4.248611    2.078583
H      -2.081831   -4.619258    3.423464
H      -2.712500   -3.877421    1.939778
H      -0.251073   -2.991155    4.978207
H       1.406369   -1.179650    3.918404
