17

O      -0.012325    1.420753   -0.101942
C       0.027997    0.037704   -0.097126
C       0.437341   -0.838932   -1.292426
C      -0.347975   -1.927017   -0.511922
C       0.566622   -2.148824    0.720148
C       0.413748   -0.711518    1.266853
C      -1.102140   -0.702878    1.549140
O      -1.792345   -0.517310    2.506869
C      -1.309570   -0.791336    0.046083
H       0.854991    1.759185    0.145448
H      -0.082019   -0.511508   -2.196366
H       1.495842   -1.018521   -1.508670
H      -0.758635   -2.799499   -1.015053
H       0.203642   -2.905484    1.422365
H       1.589579   -2.404607    0.430230
H       1.143125   -0.314084    1.970488
H      -2.227317   -0.557909   -0.487282
