17

O       0.085771    1.349066   -0.723267
C      -0.004510    0.073237   -0.173971
C      -0.188065   -1.136038   -1.069293
C      -1.316218   -0.664896   -0.177046
N      -1.526151   -1.377416    1.074058
C      -0.202811   -1.375236    1.751332
C       0.609699   -0.162095    1.199401
C      -0.345067   -1.358938    3.205055
N      -0.455451   -1.328290    4.354862
H       0.948252    1.439233   -1.143685
H      -0.313898   -0.921214   -2.124729
H       0.327123   -2.067623   -0.856972
H      -2.206066   -0.252297   -0.635810
H      -2.182576   -0.844759    1.638501
H       0.316477   -2.303549    1.487106
H       1.682313   -0.376548    1.190612
H       0.441692    0.733077    1.806143
