15

N       0.136871    1.380772    0.142261
C      -0.006391   -0.003316    0.031707
C      -1.177298   -0.686404    0.016753
C      -1.223838   -2.149204   -0.006854
O      -2.274260   -2.785244   -0.017815
C       0.093752   -2.791461   -0.040627
C       1.226317   -2.054302   -0.027528
O       2.501664   -2.510007   -0.030233
N       1.194994   -0.683043   -0.009549
H       0.780941    1.781048   -0.530350
H      -0.751419    1.861185    0.100258
H      -2.119887   -0.152753    0.004955
H       0.135708   -3.873623   -0.080420
H       2.481554   -3.472794   -0.010416
H       2.051144   -0.197507    0.208981
