21

C      -0.263011    1.510083   -0.081086
C      -0.024669    0.005696   -0.054599
C       1.166900   -0.490808   -1.004855
C       2.078708   -0.398872    0.266331
C       2.736291   -1.197538    1.452793
C       1.774023   -0.302512    2.367993
C       0.841875   -0.565781    1.123878
C       0.737801   -2.104286    1.246836
O       2.113124   -2.470622    1.479039
H       0.662646    2.074611    0.070923
H      -0.683628    1.817253   -1.044546
H      -0.967654    1.808153    0.702176
H      -0.977490   -0.514033   -0.201505
H       1.002810   -1.493130   -1.401071
H       1.432294    0.175043   -1.830135
H       2.437391    0.631269    0.336865
H       3.808156   -1.299373    1.626408
H       1.511205   -0.737355    3.337262
H       2.097457    0.732864    2.473361
H       0.117329   -2.403931    2.100470
H       0.364568   -2.611463    0.351805
