18

C      -0.257622    1.545877   -0.424023
C       0.186121    0.126777   -0.063564
N       0.677296   -0.661581   -1.181358
C       0.185922   -0.789307   -2.552174
C       0.946532    0.071444   -3.516092
O       1.383013    1.341588   -3.153557
C       1.592471   -1.203952   -2.994760
C       1.981429   -0.975315   -1.526369
O       2.998511   -1.010099   -0.887364
H       0.560364    2.112977   -0.870199
H      -1.083779    1.531331   -1.142353
H      -0.606518    2.062162    0.475836
H       1.010340    0.149138    0.656639
H      -0.641390   -0.412347    0.415511
H      -0.759802   -1.270323   -2.768051
H       0.603251   -0.011517   -4.550298
H       2.312263    1.423178   -3.393643
H       1.905358   -2.019646   -3.630973
