18

C      -0.045327    1.506726   -0.081726
C      -0.083110   -0.019876    0.002892
N      -1.435793   -0.546995    0.022503
N      -2.047055   -0.902142    1.144180
C      -3.286342   -1.236392    0.769182
C      -4.328584   -1.722646    1.719078
C      -3.355854   -1.043857   -0.623795
O      -4.427559   -1.270246   -1.409995
N      -2.190521   -0.605592   -1.082828
H       0.991959    1.854483   -0.103189
H      -0.545753    1.852922   -0.989677
H      -0.542804    1.953996    0.783341
H       0.430881   -0.467767   -0.852244
H       0.390054   -0.376953    0.919490
H      -5.209034   -1.070943    1.715344
H      -4.672548   -2.728866    1.455984
H      -3.923084   -1.750097    2.732448
H      -4.175287   -1.053748   -2.315795
