14

C       0.000560    1.460894    0.005886
N       0.016646   -0.000725   -0.005392
C       0.092119   -0.652993    1.223213
N       0.143862    0.023620    2.298584
C      -0.038963   -0.751022   -1.167255
N      -0.024377   -2.030308   -1.169387
C      -0.116306    0.001938   -2.409166
N      -0.179533    0.509770   -3.446440
H       0.907321    1.837183    0.485117
H      -0.060512    1.837091   -1.013833
H      -0.855767    1.816977    0.583264
H       0.098935   -1.737237    1.121670
H       0.195415   -0.601849    3.100534
H      -0.072479   -2.397822   -2.115507
