18

C      -0.199858    1.547702   -0.080848
C       0.037626    0.043461   -0.024108
C       0.890134   -0.543973   -1.159257
C       1.510816   -1.809638   -0.564757
O       2.084600   -2.700389   -1.146462
N       1.296930   -1.750164    0.795867
C       0.768703   -0.472531    1.262533
C       1.820550    0.419323    1.762842
C       2.691231    1.131992    2.186607
H       0.745312    2.097727   -0.073760
H      -0.743526    1.812023   -0.993082
H      -0.793830    1.890111    0.773083
H      -0.929901   -0.471662   -0.028639
H       0.328989   -0.774869   -2.066356
H       1.708312    0.131451   -1.438243
H       1.821527   -2.360949    1.404169
H       0.038446   -0.632274    2.064413
H       3.462815    1.759690    2.559720
