20

C      -0.306831    1.512245   -0.030839
C       1.165090    1.218452    0.070593
C       0.161866    0.073136    0.023310
C      -0.104827   -0.685335    1.311328
C       0.761652   -1.933484    1.486116
C       0.335832   -3.063180    0.559651
O       0.665505   -2.901415   -0.821343
C       0.360567   -1.784569   -1.535268
N       0.130249   -0.579970   -1.244145
H      -0.814405    1.914843    0.839253
H      -0.684376    1.855701   -0.985914
H       1.773336    1.370975   -0.812133
H       1.669926    1.404267    1.012756
H       0.047729   -0.002064    2.153814
H      -1.162729   -0.984192    1.345027
H       1.821896   -1.701111    1.329325
H       0.663331   -2.307434    2.512755
H       0.826141   -3.999914    0.837788
H      -0.750674   -3.214059    0.643069
H       0.377317   -2.063294   -2.589687
