20

O      -0.034033    1.457223   -0.077591
C       0.011930    0.043960    0.057884
C      -1.400932   -0.494503   -0.128830
C      -1.481227   -2.011995    0.005548
C      -1.288698   -2.685672    1.413801
C      -2.641494   -3.387907    1.244362
C      -3.730101   -2.367652    1.077760
C      -2.855395   -2.692795   -0.102433
H       0.854282    1.800641    0.054573
H       0.683133   -0.405961   -0.692845
H       0.395023   -0.247405    1.049701
H      -2.055293   -0.006328    0.602659
H      -1.760305   -0.191182   -1.120304
H      -0.788251   -2.474143   -0.706667
H      -0.435668   -3.367114    1.440703
H      -1.216947   -2.006489    2.271321
H      -2.854436   -4.413437    1.520418
H      -4.738143   -2.766021    1.019527
H      -3.665592   -1.405416    1.580220
H      -3.274852   -3.094495   -1.017715
