18

C       0.942777    1.533657   -0.026595
N       1.055455    0.105235   -0.242993
C       0.164604   -0.597603   -1.001458
O      -0.787716   -0.075125   -1.563029
C       0.466928   -2.069958   -1.082922
C      -0.655692   -2.989658   -1.447039
N       0.447565   -2.795447   -2.362313
C       0.199829   -2.080137   -3.613405
H       1.794393    2.073426   -0.456355
H       0.028361    1.864619   -0.520030
H       0.881969    1.769427    1.041510
H       1.832138   -0.386712    0.165808
H       1.240387   -2.425571   -0.403270
H      -0.723902   -3.966355   -0.974325
H      -1.600515   -2.497915   -1.670030
H      -0.528514   -1.266842   -3.527216
H       1.147377   -1.669808   -3.977543
H      -0.154548   -2.810362   -4.347565
