20

C      -0.125193    1.706488   -0.054583
C      -0.004133    0.183700   -0.003815
O       0.508056   -0.253681    1.254090
C      -1.336675   -0.508494   -0.334082
C      -1.290223   -2.056146   -0.296745
C      -2.672022   -2.685192   -0.112065
C      -0.594866   -2.596946   -1.530385
O      -1.040244   -3.451393   -2.254855
H       0.827653    2.171450    0.211500
H      -0.413824    2.049165   -1.053284
H      -0.888678    2.058498    0.650885
H       0.761542   -0.129425   -0.723499
H      -0.077647    0.083037    1.942024
H      -2.084455   -0.173803    0.398549
H      -1.697125   -0.161985   -1.311469
H      -0.641359   -2.318768    0.552420
H      -2.609481   -3.775664   -0.120677
H      -3.116279   -2.367354    0.835947
H      -3.347603   -2.392694   -0.922087
H       0.399195   -2.142016   -1.745878
