19

C      -0.173672    1.570694    0.021569
C       0.002153    0.056091   -0.001961
O      -1.260044   -0.603096   -0.054929
C       0.850031   -0.498577   -1.186682
C       1.955506   -1.272091   -0.436234
C       2.900929   -0.267553    0.246304
O       2.056059    0.256378    1.286249
C       0.848680   -0.503564    1.177286
O       1.253991   -1.770115    0.717909
H       0.790030    2.082117    0.053713
H      -0.729069    1.898518   -0.861977
H      -0.738530    1.880220    0.910486
H      -1.823002   -0.223304    0.628647
H       0.229696   -1.173830   -1.777378
H       1.243848    0.286703   -1.836229
H       2.432794   -2.089277   -0.974059
H       3.775478   -0.754948    0.691501
H       3.230670    0.539030   -0.417106
H       0.357011   -0.566577    2.149023
