18

C      -0.196697    1.840303    0.222038
C      -0.019778    0.338468    0.030006
O       0.860096   -0.114823    1.088405
C       1.675583   -1.153736    0.816847
O       2.405149   -1.627501    1.634851
C      -1.318816   -0.434149    0.092776
C      -2.133805   -0.427459    1.354120
N      -1.616558   -1.055686   -0.984154
O      -2.840315   -1.722932   -0.888516
H       0.774554    2.339487    0.177442
H      -0.837967    2.243391   -0.566518
H      -0.650994    2.061631    1.191393
H       0.442713    0.134396   -0.941303
H       1.599867   -1.500489   -0.231178
H      -2.933024    0.320699    1.296297
H      -2.612108   -1.397836    1.499575
H      -1.504344   -0.195712    2.215357
H      -2.899412   -2.167974   -1.740877
