18

C      -0.165204    1.511729    0.015879
C      -0.051890   -0.006049    0.000935
O      -1.284040   -0.633744   -0.282591
C       1.136892   -0.568312   -0.777898
N       1.443710   -0.585749   -1.992749
O       1.760235   -1.090464    0.334282
C       0.661186   -0.665733    1.184871
C       0.872103   -0.240972    2.592269
C       0.123411   -1.529754    2.261164
H       0.781060    1.979435    0.301948
H      -0.435829    1.874894   -0.980626
H      -0.942447    1.819084    0.721839
H      -1.469219   -0.496310   -1.219003
H       2.313371   -1.094446   -2.160948
H       1.875179   -0.336482    2.993514
H       0.311711    0.610264    2.964886
H      -0.953233   -1.560352    2.386259
H       0.636428   -2.466186    2.450343
