17

O      -0.031598    1.447542   -0.073814
C       1.256091    0.826329    0.012652
C       0.049677    0.020582    0.019456
C      -0.157307   -0.657968    1.413148
C       1.128438   -1.474595    1.593983
C       2.236291   -0.734666    1.587748
C       1.973022    0.764861    1.401134
C       0.951118    1.194195    2.442283
C      -0.154351    0.455856    2.448523
H       1.885742    0.929263   -0.867326
H      -0.293441   -0.526189   -0.855032
H      -1.058911   -1.269805    1.440685
H       1.097181   -2.550088    1.716869
H       3.242663   -1.117134    1.704788
H       2.883725    1.363453    1.418446
H       1.123442    2.062840    3.065122
H      -1.017868    0.632663    3.077207
