20

C      -0.671910    1.473971    0.461955
N      -0.663800    0.089003    0.012999
C       0.665910   -0.328076   -0.414120
C      -1.227325   -0.820434    0.998533
C      -1.638796   -2.159121    0.386890
O      -1.429058   -3.212643    0.938762
C      -2.357948   -2.090826   -0.940152
C      -2.124611   -3.166488   -1.927154
O      -3.315485   -3.128446   -1.165482
H      -0.306841    2.121378   -0.341434
H      -1.693135    1.780455    0.707582
H      -0.037406    1.646814    1.351140
H       1.410889   -0.287728    0.402328
H       0.637530   -1.354913   -0.790708
H       1.012614    0.319564   -1.224847
H      -0.562181   -1.026216    1.854985
H      -2.145735   -0.369007    1.399180
H      -2.641637   -1.103763   -1.293757
H      -2.225933   -2.937879   -2.987244
H      -1.433029   -3.964759   -1.663913
