17

C      -0.108900    1.544322   -0.045035
C      -0.028954    0.014964   -0.051399
C      -1.407751   -0.647274    0.024465
N       0.703173   -0.456241   -1.225871
N       0.249773   -0.228541   -2.510377
C       1.142622   -0.781494   -3.246074
O       2.159841   -1.363026   -2.571510
C       1.879857   -1.153505   -1.211267
O       2.567454   -1.532675   -0.305615
H       0.889920    1.988656   -0.068635
H      -0.668794    1.903610   -0.913135
H      -0.617549    1.888326    0.859971
H       0.586982   -0.323470    0.787302
H      -2.015713   -0.369577   -0.841256
H      -1.317862   -1.736724    0.049802
H      -1.928703   -0.323455    0.929915
H       1.151409   -0.821180   -4.323179
