21

C      -0.082561    1.535120    0.049576
C       0.097270    0.036366   -0.031950
C       0.751150   -0.703597   -1.192329
C       0.075005   -1.934526   -1.746640
C       1.674444    0.106014   -2.111860
C       2.819623    0.531456   -1.217284
C       2.674466    0.074030    0.027951
C       1.409198   -0.703246    0.183763
O       1.425075   -1.863369    0.965633
H       0.813533    2.071343   -0.271764
H      -0.916981    1.862533   -0.581177
H      -0.304446    1.847987    1.076230
H      -0.745034   -0.526508    0.369758
H      -0.720619   -1.671980   -2.453876
H       0.791956   -2.573930   -2.274215
H      -0.365530   -2.529556   -0.942180
H       2.026439   -0.501539   -2.956519
H       1.163168    0.972125   -2.553601
H       3.629330    1.161992   -1.567359
H       3.357778    0.238604    0.853670
H       1.114404   -1.635915    1.847679
