19

C      -0.132293    1.538185    0.031138
C       0.050361    0.021599    0.014672
C       0.748450   -0.504742   -1.260657
C       0.880980   -2.031732   -1.262265
C       1.687231   -2.531330   -0.048798
C       1.128428   -1.995322    1.257325
O       0.951203   -2.659193    2.247505
C       0.787084   -0.480346    1.252462
O       1.102866    0.216718    2.184579
H       0.835534    2.045972   -0.023150
H      -0.739158    1.861151   -0.819826
H      -0.619336    1.863733    0.952809
H      -0.939437   -0.464545    0.056058
H       0.181111   -0.173224   -2.136844
H       1.742965   -0.045043   -1.341774
H      -0.117715   -2.486574   -1.248151
H       1.364273   -2.369364   -2.184527
H       1.736498   -3.621771    0.009723
H       2.719031   -2.156664   -0.130091
