17

C      -0.245100    1.569013   -0.038405
C       0.102400    0.091579   -0.025140
N       0.800622   -0.508433   -1.228201
C       2.141192    0.072208   -1.250353
C       1.902817   -1.071075   -0.318693
C       2.531725   -2.424809   -0.445552
C       1.189967   -0.523770    0.887337
O       1.290598   -0.706703    2.067226
H       0.627919    2.210353   -0.183238
H      -0.964327    1.784271   -0.834873
H      -0.702332    1.843011    0.917182
H      -0.809320   -0.496660    0.137936
H       2.700143   -0.160322   -2.152567
H       2.313113    1.073884   -0.866160
H       2.722364   -2.666427   -1.494738
H       3.485662   -2.450873    0.091468
H       1.886670   -3.200505   -0.022052
