23

C       0.315045    1.603531    0.008530
C       0.026797    0.111904   -0.011362
C       0.611261   -0.662895   -1.223899
C       1.356220   -1.870170   -0.593133
C       0.818624   -1.849011    0.850142
O       0.610810   -0.482922    1.149346
C       1.166519   -3.185905   -1.308958
C       2.061671   -3.577228   -2.458106
C       2.166657   -4.304014   -1.140116
H       1.393621    1.783545   -0.043546
H      -0.162502    2.097793   -0.843324
H      -0.065527    2.057065    0.928157
H      -1.064150   -0.047608    0.024626
H      -0.184473   -0.997578   -1.896010
H       1.288456   -0.035465   -1.810151
H       2.428453   -1.643925   -0.554329
H      -0.126719   -2.417503    0.913874
H       1.513590   -2.258885    1.587560
H       0.126102   -3.493346   -1.396727
H       1.622766   -4.099418   -3.301016
H       2.865081   -2.899198   -2.727054
H       3.040580   -4.112740   -0.525614
H       1.799977   -5.322807   -1.081819
