18

O      -0.153643    1.415623   -0.037200
C      -0.083702    0.030913    0.026928
C      -0.393843   -0.735760    1.312362
C      -1.149143   -0.022958    2.380745
C      -2.354974    0.367463    1.959421
C      -2.572087   -0.017001    0.535898
C      -3.901811   -0.183786   -0.095103
N      -3.096305    1.005946   -0.427561
C      -1.339264   -0.790999    0.114424
H      -0.947803    1.628787   -0.545402
H       0.728196   -0.396585   -0.561131
H       0.258680   -1.563315    1.567452
H      -0.731454    0.175907    3.360213
H      -3.072932    0.957615    2.518827
H      -4.018449   -0.896911   -0.907628
H      -4.788018   -0.051750    0.520291
H      -3.447865    1.803141    0.099616
H      -1.457178   -1.674080   -0.502621
