23

C       2.512897    0.633346    0.868014
C       1.465039   -0.471741    0.614641
C       0.144427   -0.052019    1.090277
C      -0.936590    0.314923    1.468411
C       1.408590   -0.844128   -0.865430
C       2.355215   -1.845355   -1.501476
C       3.437382   -2.581729   -0.738667
C       0.879405   -2.170836   -1.365892
C       0.348959   -3.248880   -0.442647
H       3.504569    0.291067    0.558805
H       2.266039    1.533667    0.297288
H       2.548746    0.903082    1.926885
H       1.761645   -1.350047    1.199320
H      -1.892613    0.628015    1.807798
H       1.158036    0.015991   -1.482248
H       2.668239   -1.579966   -2.508855
H       3.139466   -2.851435    0.277272
H       3.706445   -3.511299   -1.252698
H       4.346734   -1.974839   -0.662598
H       0.313853   -2.103575   -2.292366
H       0.929887   -3.348831    0.477273
H      -0.684228   -3.033628   -0.151141
H       0.360304   -4.224666   -0.940898
