14

C      -0.015112    1.457954   -0.000713
N       0.011192   -0.008139    0.018653
C       0.104252   -0.623213   -1.213489
O       0.162589   -0.042787   -2.259370
O       0.129899   -2.005358   -1.210219
C       0.066484   -2.700164   -0.052482
C      -0.023761   -2.130080    1.150638
C      -0.058734   -0.677241    1.265400
O      -0.139288   -0.064263    2.307730
H       0.896318    1.840218   -0.464654
H      -0.871487    1.807001   -0.581110
H      -0.089371    1.791151    1.031747
H       0.098652   -3.767241   -0.235660
H      -0.072707   -2.714427    2.057591
