18

O       0.714185    1.192872    0.303926
C       0.255052   -0.061817    0.057414
C       0.412949   -0.939182   -0.986076
C      -0.325793   -2.125028   -0.646034
C      -0.897518   -1.908072    0.583066
N      -0.532812   -0.640736    1.007234
C      -0.450465   -3.338131   -1.489371
C       0.612565   -4.419280   -1.463158
C      -0.752897   -4.685885   -0.883437
H       1.252945    1.466526   -0.444125
H       0.990161   -0.772730   -1.882929
H      -1.541294   -2.528694    1.183327
H      -0.793413   -0.198538    1.870813
H      -0.888565   -3.163761   -2.469954
H       0.880904   -4.899280   -2.398162
H       1.435657   -4.288518   -0.769584
H      -0.832778   -4.749865    0.195876
H      -1.422665   -5.349613   -1.418880
