19

C       0.006810    1.637828   -0.002334
C       0.073197    0.109645   -0.116078
C      -1.296989   -0.540123    0.018051
C      -1.521529   -2.074842    0.131513
C      -0.650400   -2.540018    1.311611
C      -1.048453   -1.386121    2.261945
O      -0.670309   -1.134957    3.371389
C      -2.060725   -0.644274    1.371414
O      -2.786516   -1.790392    0.820510
H       0.996344    2.085108   -0.132266
H      -0.656186    2.063257   -0.763352
H      -0.370613    1.945819    0.978399
H       0.496675   -0.169160   -1.089556
H       0.764722   -0.278330    0.640339
H      -1.995648   -0.144935   -0.725415
H      -1.625086   -2.723756   -0.737508
H      -0.977593   -3.508526    1.697287
H       0.427419   -2.573238    1.132966
H      -2.677141    0.137717    1.809510
