17

C      -0.001669    1.504027    0.071275
C       0.027593   -0.010603   -0.022902
C       0.732170   -0.540800   -1.266026
C       0.823515   -2.043471   -1.213990
N       0.781842   -2.750264   -2.269498
N       0.965730   -2.526220    0.087647
C       1.041857   -1.783863    1.265059
O       1.379071   -2.273950    2.308808
O       0.715382   -0.481402    1.162384
H       1.013620    1.910364    0.042959
H      -0.569558    1.921584   -0.765081
H      -0.473921    1.817795    1.005212
H      -0.996345   -0.406928    0.014759
H       0.209153   -0.252760   -2.178961
H       1.745253   -0.120853   -1.309388
H       0.877006   -3.747723   -2.065640
H       1.165752   -3.506960    0.224677
