18

C      -0.071269    1.556131   -0.041188
C       0.011538    0.045391   -0.038258
C      -1.180719   -0.660323    0.581873
C       0.671697   -0.722162   -1.187994
N       1.625895   -0.047869   -2.009314
C       2.674748    0.474030   -1.280944
O       3.565177    1.181149   -1.657367
O       2.535765    0.052514    0.024349
C       1.330912   -0.669898    0.167710
H       0.789345    2.030906   -0.515509
H      -0.971241    1.886860   -0.571674
H      -0.130508    1.936136    0.984360
H      -2.101993   -0.412901    0.042775
H      -1.065712   -1.749200    0.559817
H      -1.311094   -0.361195    1.627723
H       0.213558   -1.616309   -1.597211
H       1.415007    0.360146   -2.904469
H       1.426218   -1.511913    0.842592
