15

C       0.034471    1.419472    0.029239
O      -0.097113    0.015209   -0.059899
C       0.587050   -0.567552   -1.131295
C       2.094452   -0.745943   -0.867691
C      -0.065543   -1.921491   -1.399269
O      -0.915762   -2.435648   -0.726974
C       0.446323   -2.602477   -2.614282
N       0.837179   -3.123302   -3.569908
H       1.063822    1.732994    0.252290
H      -0.288974    1.914268   -0.898945
H      -0.613095    1.742708    0.846553
H       0.456856    0.025682   -2.055536
H       2.568700    0.229986   -0.741705
H       2.245325   -1.329424    0.044497
H       2.586075   -1.252031   -1.702772
