18

C      -0.206797    1.433664    0.136118
C       0.195646   -0.002647    0.044176
C       0.651559   -0.788435   -1.199955
C       1.449560   -1.749326   -0.251524
C       0.956711   -0.908120    0.935361
C       1.545308   -0.739379    2.299763
O       1.334309   -1.889290    3.105884
O      -0.488743   -0.952829    0.879788
H       0.539287    2.077159   -0.340997
H      -1.164362    1.596217   -0.371824
H      -0.321456    1.740285    1.178959
H      -0.158706   -1.230978   -1.784214
H       1.304033   -0.210767   -1.859649
H       1.140297   -2.796277   -0.234312
H       2.530188   -1.690540   -0.403051
H       2.630508   -0.609230    2.231531
H       1.124971    0.163779    2.767792
H       0.383528   -2.048747    3.111127
