18

C       0.003035    1.446337    0.233410
C      -0.024659   -0.046301    0.065867
C      -1.135725   -0.797411    0.174621
C      -1.173444   -2.251114   -0.062666
C      -0.724376   -2.778240   -1.398726
N       0.084620   -2.994831   -0.214125
C       1.323190   -2.234903   -0.064750
C       1.262966   -0.711833   -0.232988
O       2.263436   -0.087737   -0.532153
H       0.670718    1.737982    1.051110
H       0.398457    1.925148   -0.668112
H      -0.995314    1.841571    0.436964
H      -2.082503   -0.328329    0.436584
H      -1.958257   -2.793596    0.459935
H      -1.191701   -3.668746   -1.811208
H      -0.409217   -2.035819   -2.129619
H       1.711102   -2.420435    0.945935
H       2.070149   -2.626127   -0.761119
