24

C      -0.082187    1.556626    0.061196
C       0.005814    0.031619   -0.021902
C       0.704193   -0.485366   -1.292402
C       0.865441   -2.015444   -1.246513
C       1.660026   -2.591391   -2.420056
N      -0.081574   -0.116427   -2.460586
C       0.449020    0.624579   -3.326891
O      -0.234187    0.996754   -4.428749
C       0.472535    1.835460   -5.333663
H       0.914309    2.013855    0.037693
H      -0.657956    1.963951   -0.774714
H      -0.568604    1.872139    0.989437
H       0.551276   -0.354257    0.848215
H      -1.000989   -0.401155    0.015761
H       1.715626   -0.034658   -1.335793
H       1.358987   -2.278263   -0.302654
H      -0.134495   -2.464588   -1.218887
H       1.166212   -2.378186   -3.372345
H       2.670132   -2.166537   -2.462426
H       1.761918   -3.677368   -2.330302
H       1.475120    1.022410   -3.271457
H       0.762188    2.782899   -4.862660
H       1.368602    1.339563   -5.726782
H      -0.210455    2.042273   -6.158401
