16

N      -0.057998    1.327671    0.008173
C       0.037429   -0.033919    0.002870
O       1.105455   -0.617230   -0.007900
C      -1.270417   -0.765761    0.011627
C      -1.342664   -2.104472    0.008761
C      -2.753249   -2.555515    0.019241
O      -3.155739   -3.694337    0.019455
C      -3.628225   -1.289532    0.028731
C      -2.638350   -0.107918    0.024361
H       0.795452    1.861335    0.003124
H      -0.935478    1.815388    0.017779
H      -0.494869   -2.775687    0.000142
H      -4.286314   -1.298694   -0.844635
H      -4.273712   -1.302989    0.911376
H      -2.757087    0.533942    0.906342
H      -2.770953    0.539197   -0.851767
