23

C       0.022653    1.561841    0.113932
C      -0.039347    0.032779   -0.017702
C       0.640382   -0.480406   -1.300671
C      -0.001600    0.006770   -2.603791
C       0.627557   -0.627937   -3.837791
O      -0.025084   -0.098431   -4.981562
C       0.583041   -0.646004    1.222211
C      -0.211063   -0.393337    2.482680
O       0.231858    0.050423    3.510543
H       1.062788    1.908841    0.117634
H      -0.495118    2.059817   -0.709797
H      -0.438231    1.901704    1.046937
H      -1.098006   -0.264916   -0.061382
H       1.700912   -0.191551   -1.281076
H       0.625417   -1.578877   -1.286078
H      -1.074589   -0.223106   -2.605618
H       0.085949    1.094015   -2.701732
H       1.708257   -0.409553   -3.857864
H       0.519910   -1.724298   -3.788476
H       0.369824   -0.493547   -5.764138
H       0.593738   -1.734908    1.065904
H       1.615001   -0.317985    1.384515
H      -1.292208   -0.661184    2.396576
