18

C       0.025205    1.504377    0.078482
C      -0.024603    0.009632   -0.029260
C      -0.098191   -0.647514   -1.197838
C      -0.054109   -2.101832   -1.228520
C       0.270465   -2.773548    0.085298
O      -0.376499   -2.108313    1.156564
C       0.016061   -0.758445    1.270932
N      -0.216124   -2.867505   -2.245033
O      -0.468466   -2.143890   -3.420129
H       0.921210    1.830732    0.622646
H       0.035138    1.976539   -0.906632
H      -0.835897    1.890208    0.639109
H      -0.169743   -0.117180   -2.139747
H      -0.076713   -3.807829    0.085457
H       1.363632   -2.773158    0.241457
H       1.032800   -0.680195    1.703888
H      -0.668598   -0.302726    1.996187
H      -0.553490   -2.845681   -4.073446
