18

C       0.086827    1.213356    0.280518
O      -0.257190   -0.066153   -0.207866
C       0.531407   -0.478225   -1.288834
C       1.951804   -1.044725   -0.889806
C       1.495617   -2.429478   -1.367636
C       0.132384   -1.894326   -1.725104
N       1.087399   -2.287091   -2.754589
C       0.907668   -3.358641   -3.611801
O       1.644329   -4.311383   -3.695760
H       1.114652    1.243677    0.671046
H      -0.008392    1.981301   -0.502202
H      -0.605174    1.445078    1.092961
H       0.530592    0.271522   -2.093014
H       2.831283   -0.630531   -1.387005
H       2.072111   -1.004069    0.194880
H       1.779007   -3.406639   -0.998357
H      -0.845086   -2.355936   -1.651802
H       0.040165   -3.200787   -4.281224
