13

O      -0.385311    0.591262    0.734943
C       0.324201    0.887809   -0.182927
C       1.422829    1.983746   -0.088752
C       1.505376    2.629930    1.321125
O       2.789795    2.184851    1.819255
C       3.331606    1.445131    0.840801
N       2.712422    1.268611   -0.257882
C       1.209021    2.950834   -1.168701
N       0.992744    3.710002   -2.012476
H       0.294471    0.379831   -1.164692
H       1.498062    3.719793    1.302469
H       0.719410    2.245958    1.973696
H       4.308186    1.032599    1.067589
