17

C       0.063993    1.392030   -0.031794
O      -0.006232   -0.025060   -0.017501
C      -1.234048   -0.599937    0.005526
C      -2.449893    0.074840    0.016470
N      -3.621210   -0.574675    0.039387
C      -3.554430   -1.899668    0.051117
N      -2.444167   -2.645663    0.042292
C      -1.275657   -2.008712    0.019525
C      -0.009895   -2.815995    0.009098
H       1.125492    1.641892   -0.049218
H      -0.421938    1.809092   -0.922632
H      -0.396539    1.825862    0.864508
H      -2.498904    1.159312    0.006842
H      -4.497961   -2.438826    0.069560
H       0.589213   -2.590182   -0.879631
H       0.615457   -2.571757    0.874550
H      -0.256994   -3.877710    0.023853
