22

C      -0.080333    1.582379   -0.030233
C       0.088922    0.060702   -0.020748
C       0.642847   -0.477274    1.304291
C       0.812571   -1.993898    1.317480
C       1.928584   -2.662714    0.434297
C       2.477070   -3.360498    1.685119
C       2.885505   -2.337203    2.704821
C       1.425216   -2.669195    2.555901
H       0.876288    2.087835    0.143780
H      -0.474002    1.936677   -0.988254
H      -0.771606    1.908562    0.755004
H      -0.877917   -0.417145   -0.228583
H       0.755163   -0.238032   -0.840722
H       1.604616    0.008132    1.517183
H      -0.030004   -0.187158    2.123927
H      -0.150877   -2.461420    1.084785
H       1.520648   -3.347164   -0.312492
H       2.625966   -1.980619   -0.065964
H       2.828372   -4.384230    1.729132
H       3.352539   -2.732379    3.601540
H       3.281146   -1.374022    2.391041
H       0.855832   -3.073577    3.385101
