21

C       0.001525    1.571713    0.084951
C      -0.008532    0.043821   -0.000162
C       0.641693   -0.594354    1.239971
N      -1.378289   -0.404239   -0.241898
C      -1.621989   -1.740032   -0.586643
C      -0.744667   -2.653234   -1.141834
N      -1.456585   -3.812041   -1.395533
C      -2.753245   -3.656175   -1.002439
C      -2.893933   -2.384123   -0.496905
H       1.020387    1.950062    0.210947
H      -0.430236    2.012897   -0.817111
H      -0.585814    1.915060    0.945999
H       0.570866   -0.248315   -0.886048
H       0.585932   -1.684907    1.190481
H       1.695020   -0.306441    1.327534
H       0.127732   -0.268332    2.152233
H      -2.014199   -0.076760    0.474324
H       0.301621   -2.581642   -1.384217
H      -1.065176   -4.649359   -1.786051
H      -3.471339   -4.452799   -1.112484
H      -3.804141   -1.947386   -0.114024
