15

O       0.054609    1.310349   -0.179330
N       0.015889   -0.054757   -0.095461
C      -1.158137   -0.588143   -0.001596
C      -1.144933   -2.042911    0.091407
C      -2.265948   -2.746632    0.245469
C      -3.597766   -2.083076    0.316818
O      -3.594335   -0.699223   -0.030151
C      -2.480184    0.099118    0.018639
N      -2.610238    1.359873    0.018212
H       1.002218    1.481018   -0.248254
H      -0.168545   -2.511641    0.045135
H      -2.252368   -3.827487    0.341454
H      -4.307734   -2.561079   -0.369747
H      -4.023785   -2.185630    1.327950
H      -3.607127    1.590522    0.026911
