15

O      -0.153790    1.354241    0.043640
C      -0.079797   -0.042122   -0.000696
C       1.041822   -0.611711    0.708477
C       1.998905   -1.054717    1.285582
C      -1.359506   -0.801451    0.016219
C      -2.455737    0.001289   -0.704304
C      -1.573756   -0.062514   -1.975087
O      -1.758486    0.230833   -3.120285
C      -0.480599   -0.821507   -1.270358
H       0.639987    1.709494   -0.372535
H       2.837397   -1.447434    1.806218
H      -1.527298   -1.617303    0.705787
H      -3.372273   -0.575712   -0.857086
H      -2.695662    0.987166   -0.305225
H       0.176007   -1.577894   -1.680847
