21

C      -0.106647    1.534013   -0.026818
C       0.037800    0.016281   -0.008992
C       1.100546   -0.581436   -0.956112
O       2.337296   -0.020194   -0.412104
C       2.184268   -0.062609    1.010118
C       0.750047   -0.637172    1.216744
C       0.839878   -2.086203    0.753493
C       0.818639   -3.258723    1.676600
C       1.050011   -2.046258   -0.570836
H       0.864025    2.034876   -0.031758
H      -0.648316    1.853886   -0.923470
H      -0.674568    1.885740    0.841601
H      -0.932895   -0.460898   -0.165631
H       1.063803   -0.325124   -2.014146
H       2.955398   -0.700150    1.458874
H       2.284835    0.949510    1.421079
H       0.325613   -0.460016    2.206349
H      -0.123671   -3.306773    2.237205
H       0.940586   -4.199438    1.132432
H       1.620491   -3.193976    2.423498
H       1.267103   -2.879590   -1.227697
