16

C      -0.136397    1.504425   -0.056262
C       1.425467    1.751981    0.055501
C       2.164911    1.923014    1.423836
N       2.370373    0.552413    1.969458
C       2.052404   -0.265078    1.055905
C       1.271525   -1.577267    1.104253
N      -0.067254   -1.013522    0.678972
C       0.254539    0.029528    0.015444
N       1.642269    0.297911   -0.208034
H      -0.779148    1.833683    0.761635
H      -0.540143    1.850671   -1.009499
H       1.824827    2.407244   -0.718336
H       3.122531    2.434318    1.274394
H       1.601070    2.499839    2.164186
H       1.651084   -2.334631    0.411905
H       1.186183   -1.991026    2.108070
