22

C       0.338868    1.435186   -0.069497
N       0.395210   -0.015672    0.043160
C       0.491443   -0.703720   -0.995773
C       0.561220   -2.183833   -1.295365
C       0.605108   -1.723063   -2.770739
O       0.556962   -0.319905   -2.329350
C       1.814509   -2.024509   -3.651202
C       1.648479   -1.335784   -5.015008
C       3.152485   -1.641165   -3.004509
H       1.190561    1.870308    0.465572
H       0.346065    1.806702   -1.100960
H      -0.567480    1.797321    0.428180
H       1.453922   -2.685841   -0.919392
H      -0.322292   -2.753395   -1.002259
H      -0.316754   -1.950065   -3.317642
H       1.800722   -3.113064   -3.810212
H       2.489174   -1.568066   -5.675615
H       0.728202   -1.654780   -5.515597
H       1.604626   -0.248723   -4.891930
H       3.327892   -2.168479   -2.062255
H       3.980070   -1.888117   -3.676113
H       3.190750   -0.566652   -2.803554
