23

C       0.325861    1.571822    0.024546
C      -0.001612    0.097760   -0.029874
C       0.011248   -0.546042   -1.203713
C      -0.297214   -2.002992   -1.491929
C      -1.571407   -2.515576   -0.836487
C      -1.589073   -3.834002   -0.098216
C      -1.650593   -2.533100    0.666796
C      -0.467975   -2.008909    1.453029
C      -0.321772   -0.483977    1.335495
H       1.200930    1.761365    0.660251
H       0.530877    1.981804   -0.967621
H      -0.502007    2.144969    0.463273
H       0.287422    0.043457   -2.076636
H      -0.373713   -2.137917   -2.576748
H       0.550775   -2.631612   -1.190082
H      -2.482626   -2.241560   -1.360869
H      -2.481471   -4.448555   -0.148046
H      -0.663369   -4.400935   -0.059119
H      -2.616473   -2.276831    1.096379
H      -0.576489   -2.273577    2.512260
H       0.456381   -2.491531    1.117681
H       0.459332   -0.145836    2.032326
H      -1.243823   -0.005845    1.703592
