18

O       0.014008   -0.009773   -0.103561
C       0.003689    1.192628   -0.010069
C      -1.269520    2.040107    0.103891
C      -0.906953    3.346657    0.820905
C      -0.103799    2.998594    2.101362
C       1.118680    3.115879    1.186636
C       1.239174    2.071498    0.007220
C       0.936941    3.296424   -0.903860
N       0.344545    4.029899    0.256709
H      -1.666239    2.225437   -0.901926
H      -2.033981    1.479379    0.649501
H      -1.755530    4.027445    0.904950
H      -0.112776    3.807576    2.834512
H      -0.317150    2.047056    2.594863
H       2.076851    3.471006    1.574856
H       2.155214    1.492836   -0.115683
H       1.844703    3.820020   -1.217156
H       0.295660    3.152742   -1.778635
