16

N      -0.142575    1.288920   -0.096156
C      -0.029328    0.024888   -0.069021
C       1.175740   -0.948452   -0.074113
N       0.643601   -2.313460    0.110472
C      -0.612456   -2.134658    0.143258
O      -1.613006   -3.002853    0.344311
C      -2.864202   -2.285706    0.202961
C      -2.515285   -0.771262    0.258374
N      -1.102417   -0.847740   -0.017213
H       0.775332    1.730054   -0.131664
H       1.724741   -0.870380   -1.020493
H       1.877885   -0.693632    0.727861
H      -3.308437   -2.561147   -0.758362
H      -3.525274   -2.604786    1.009741
H      -3.056441   -0.194549   -0.495494
H      -2.713365   -0.328869    1.242095
