23

C      -0.120903    1.623310   -0.172954
C      -0.160767    0.089562   -0.145703
C       0.779402   -0.523207   -1.156436
C       2.315082   -0.432141   -0.957145
C       2.448555   -1.936452   -1.348856
C       0.906141   -2.044617   -1.527443
C       0.175966   -3.186010   -0.857251
C       0.436439   -1.585124   -2.920014
O       0.413471   -0.196373   -2.523748
H       0.875697    1.999549    0.081194
H      -0.375190    1.992400   -1.170272
H      -0.831269    2.047984    0.542373
H       0.103476   -0.278291    0.854045
H      -1.180217   -0.257130   -0.354389
H       2.798732    0.285680   -1.622514
H       2.617291   -0.220895    0.072624
H       3.038317   -2.150324   -2.244711
H       2.827017   -2.562046   -0.536087
H       0.460442   -3.280653    0.196414
H      -0.910461   -3.052641   -0.902110
H       0.412321   -4.139666   -1.345673
H       1.123037   -1.769916   -3.756826
H      -0.566156   -1.936670   -3.201209
