22

C       0.003841    1.593014    0.335058
O      -0.078117    0.185858    0.485809
C      -1.343972   -0.312556    0.270795
C      -2.412927   -0.426481    1.373864
N      -2.658293   -1.829889    0.957479
C      -4.004796   -2.331064    0.766142
C      -1.718096   -1.716202   -0.150981
C      -1.929789   -0.538783   -1.103333
C      -3.237171    0.010751   -1.634914
H       1.043998    1.873580    0.515189
H      -0.284390    1.906008   -0.678267
H      -0.636072    2.118851    1.058215
H      -1.994880   -0.360854    2.384596
H      -3.275603    0.249266    1.297220
H      -4.637157   -1.735000    0.087760
H      -3.950354   -3.348537    0.364544
H      -4.511284   -2.386841    1.736262
H      -1.084527   -2.555407   -0.421281
H      -1.125286   -0.538428   -1.839455
H      -3.975726    0.166719   -0.845703
H      -3.075255    0.978553   -2.123333
H      -3.681923   -0.663037   -2.375335
