15

N       0.087559   -1.178737    0.021463
C       0.156296   -0.040469   -0.161081
C       0.226833    1.408411   -0.372318
N       1.204729    2.021120    0.538428
C       1.429141    3.394660    0.323847
C       0.783946    4.551647    0.687202
N       1.457861    5.653278    0.216213
C       2.495372    5.175948   -0.434126
N       2.529074    3.815705   -0.401767
H       0.547003    1.595943   -1.402491
H      -0.788076    1.824746   -0.275830
H       0.953844    1.832170    1.501409
H      -0.120844    4.649234    1.268983
H       3.245461    5.761008   -0.945128
H       3.240767    3.205814   -0.770097
