20

C       0.028615    1.515046    0.134137
N       0.004521    0.070865    0.150996
C      -1.265432   -0.614350    0.438403
C      -0.477934   -1.703270    1.225708
C      -0.127432   -2.941755    0.396080
O       0.886602   -3.720232    0.995314
C       0.665419   -0.638011    1.259493
C      -1.022008   -2.061617    2.580201
O      -1.014968   -3.174821    3.053441
H       1.056140    1.865999   -0.006908
H      -0.570232    1.886136   -0.704259
H      -0.364830    1.968543    1.064563
H      -1.939466   -0.036232    1.094563
H      -1.829108   -0.947800   -0.440538
H      -1.043563   -3.528744    0.224198
H       0.250352   -2.618853   -0.578757
H       0.507808   -4.052809    1.819159
H       1.670544   -1.018664    1.056028
H       0.677786   -0.061894    2.200691
H      -1.437795   -1.207058    3.161007
