14

N       0.016704    1.371778   -0.109179
C      -0.015628    0.006086   -0.042657
C      -1.202865   -0.680910    0.046079
N      -2.440789    0.001314    0.128329
C      -1.192624   -2.109300    0.119095
O      -2.133812   -2.852874    0.238863
O       0.104715   -2.686395    0.065858
C       1.181597   -1.910677   -0.060235
N       1.206141   -0.631809   -0.117768
H       0.915036    1.787468    0.084981
H      -0.784844    1.839137    0.292118
H      -2.667707    0.480275   -0.739239
H      -3.176480   -0.672943    0.316343
H       2.096893   -2.492306   -0.112108
