20

C      -0.071781    1.513610    0.023045
C      -0.006980    0.016658    0.007542
C       0.447571   -0.828573   -1.216616
C       1.917136   -1.231394   -1.019953
C       2.105463   -1.239401    0.532598
C       0.726065   -0.840243    1.078977
C      -0.400390   -1.830862    0.798859
C      -0.580421   -1.823328   -0.685211
N      -1.310250   -0.821776    0.161387
H       0.928260    1.946937   -0.095639
H      -0.703143    1.885390   -0.790750
H      -0.490527    1.876333    0.967601
H       0.191951   -0.411687   -2.192451
H       2.130052   -2.205460   -1.470876
H       2.589162   -0.508603   -1.494531
H       2.418606   -2.217804    0.909615
H       2.872494   -0.520802    0.840075
H       0.711726   -0.433456    2.091748
H      -0.786571   -2.618165    1.436600
H      -1.108846   -2.604671   -1.219967
