19

O       0.079579    1.275437   -0.588647
C       0.050902    0.152649    0.273968
C      -1.330877   -0.454065    0.342131
N      -1.752344   -1.113693   -0.921378
C      -1.566884   -1.913665    0.285061
C      -0.653251   -3.144919    0.321511
N      -1.755028   -3.985715    0.926473
C      -2.089932   -3.340856    2.207534
C      -2.628677   -2.741510    0.967639
H      -0.260065    0.963188   -1.436037
H       0.771434   -0.616336   -0.045388
H       0.360741    0.510666    1.261564
H      -2.077825    0.148461    0.856914
H      -2.742702   -0.955090   -1.093512
H      -0.403771   -3.507847   -0.677166
H       0.250935   -3.099991    0.937617
H      -2.765341   -3.933958    2.816845
H      -1.309766   -2.822747    2.762078
H      -3.681853   -2.767114    0.701715
