21

C       0.048639    1.496058    0.102140
C       0.038629    0.001831   -0.013102
C      -0.978203   -0.879068    0.746391
C      -1.061267   -2.227951    0.032937
C       0.463566   -2.059905   -0.222544
C       0.506257   -1.034661    0.987532
C       0.535136   -0.850345   -1.164594
C       0.277741   -0.770689   -2.636730
C       1.669812   -0.511970   -2.076990
H       1.040938    1.907748   -0.115150
H      -0.665242    1.958586   -0.590118
H      -0.224729    1.812743    1.114322
H      -1.710240   -0.423993    1.402950
H      -1.268901   -3.036546    0.740008
H      -1.707295   -2.327432   -0.847079
H       1.114684   -2.920357   -0.367513
H       1.115647   -0.955727    1.876629
H       0.114444   -1.693942   -3.184694
H      -0.277299    0.078073   -3.024308
H       2.040600    0.508472   -2.093980
H       2.435179   -1.261857   -2.252409
