22

C      -1.879780    1.291074    2.064405
C      -1.788996   -0.212099    1.790934
C      -1.923684   -0.558536    0.301326
C      -1.757506   -2.043989    0.054949
C      -2.934090   -2.990969    0.055112
C      -4.269544   -2.487845    0.223256
C      -5.400597   -2.100389    0.364749
N      -2.151861   -2.725437   -1.169121
C      -2.765729   -1.983414   -2.263377
H      -1.778567    1.507897    3.132316
H      -1.090571    1.838757    1.537044
H      -2.841707    1.696775    1.732166
H      -0.831982   -0.596469    2.167987
H      -2.572600   -0.738877    2.348757
H      -2.896003   -0.213175   -0.061351
H      -1.158875   -0.015795   -0.271177
H      -0.834865   -2.448104    0.474809
H      -2.787990   -3.994450    0.450448
H      -6.398280   -1.760395    0.493982
H      -3.523781   -1.249727   -1.961560
H      -1.976086   -1.466571   -2.817379
H      -3.241801   -2.699135   -2.940446
