16

C       0.165365    1.632696   -0.103513
C       0.067388    0.120295    0.032129
O       0.639925   -0.518910   -1.123384
C       1.885918   -1.013461   -0.878659
O       2.555185   -1.521985   -1.725719
C       2.229381   -0.800935    0.592978
C       0.860545   -0.501230    1.227620
C       0.903996    0.333664    2.420406
N       0.938590    0.995229    3.367330
H       1.207046    1.968033   -0.116621
H      -0.306347    1.944470   -1.038320
H      -0.343241    2.125651    0.728906
H      -0.979730   -0.188937    0.069915
H       2.729559   -1.677901    1.002935
H       2.916086    0.046674    0.676921
H       0.380331   -1.447657    1.498135
