16

C       0.242100    1.238717    0.184401
N      -0.288506   -0.005390   -0.331569
C       0.490673   -0.733361   -0.996299
O       0.062035   -1.911742   -1.505508
C       1.005061   -2.618742   -2.273869
C       2.031914   -3.465325   -1.570405
C       0.852546   -4.102905   -2.276162
H       1.298870    1.418835   -0.073934
H      -0.352009    2.077580   -0.195925
H       0.148639    1.253972    1.276393
H       1.543634   -0.501422   -1.217689
H       1.280451   -2.118156   -3.199264
H       3.018971   -3.551559   -2.010824
H       2.013221   -3.458528   -0.486574
H       0.061310   -4.503583   -1.653595
H       1.019205   -4.635305   -3.205191
