18

C       0.724833    1.381911    0.197601
C      -0.140236    0.144832    0.039377
O      -0.801887   -0.306778    0.945386
C      -0.118491   -0.470474   -1.336441
O      -0.573718   -1.811978   -1.477304
C      -1.362620   -0.798005   -2.096984
C      -2.733826   -0.583378   -1.497896
C      -1.293820   -0.773977   -3.610094
H       1.783479    1.114025    0.098590
H       0.507520    2.112204   -0.590413
H       0.553749    1.828175    1.177472
H       0.765764   -0.224679   -1.927849
H      -2.696312   -0.635226   -0.410278
H      -3.141495    0.386149   -1.803609
H      -3.415014   -1.359792   -1.862819
H      -1.960047   -1.536834   -4.027480
H      -1.614609    0.197984   -3.999157
H      -0.279154   -0.976846   -3.960651
