21

C       0.268343    1.464597    0.033400
C       0.060801   -0.042418   -0.051738
C      -1.424631   -0.411879    0.013428
C       0.759831   -0.699200   -1.274457
C       1.297563   -2.016766   -0.730656
C       2.537758   -1.927243    0.151761
O       3.288682   -0.757934    0.204137
C       1.167549   -1.925913    0.772349
O       0.730136   -0.631141    1.104533
H       1.334457    1.708974    0.013215
H      -0.211420    1.963349   -0.814287
H      -0.163193    1.864935    0.955421
H      -1.976469    0.044981   -0.814459
H      -1.556014   -1.496762   -0.047913
H      -1.861226   -0.066029    0.954666
H       0.058780   -0.858644   -2.097084
H       1.574837   -0.065463   -1.637722
H       1.102964   -2.942129   -1.259666
H       3.144396   -2.824557    0.239320
H       2.805973   -0.165973    0.799415
H       0.799566   -2.718299    1.416381
