25

C      -0.020498    1.609792    0.050650
C      -0.031186    0.074001    0.075577
C       0.657169   -0.452436    1.342500
C      -1.451347   -0.509548   -0.047779
C      -2.138615   -0.281719   -1.384218
C      -3.581408   -0.800105   -1.563722
C      -3.900077    0.645234   -2.003593
C      -5.002690    1.405844   -1.297190
O      -2.577860    1.084507   -1.606421
H       1.005702    1.989335    0.104903
H      -0.492471    2.004685   -0.850963
H      -0.568911    2.012386    0.910982
H       0.544802   -0.283608   -0.791157
H       0.112062   -0.140067    2.241596
H       0.709876   -1.546588    1.348880
H       1.678393   -0.066035    1.425969
H      -1.403657   -1.597740    0.103370
H      -2.091436   -0.109449    0.750468
H      -1.472555   -0.598687   -2.201955
H      -3.737446   -1.590966   -2.298996
H      -4.059747   -1.080822   -0.621029
H      -4.017130    0.737105   -3.093713
H      -4.906134    1.307978   -0.211529
H      -4.957807    2.469766   -1.551141
H      -5.984567    1.024048   -1.598417
