13

C      -0.005603    1.435969    0.047858
N       0.000730   -0.011456   -0.051242
C       0.062411   -0.801199   -1.137449
C       0.034748   -2.090303   -0.636689
C       0.078488   -3.342449   -1.399818
O       0.052397   -4.452126   -0.928139
N      -0.042532   -2.010813    0.729207
N      -0.062896   -0.768885    1.080554
H       0.911547    1.854181   -0.374704
H      -0.870742    1.853213   -0.473756
H      -0.064648    1.682886    1.107613
H       0.118925   -0.411963   -2.140855
H       0.140699   -3.181416   -2.500646
