18

C      -0.050928    1.498516   -0.022026
C      -0.008659    0.002072    0.013627
C       0.468926   -1.051338   -0.967535
C       1.284217   -1.762977    0.108147
C       0.484941   -0.937073    1.157935
O      -0.649904   -1.692194    1.607641
C      -1.510885   -1.827587    0.542095
N      -2.562268   -2.527559    0.539606
C      -1.012824   -0.961292   -0.558974
H       0.938912    1.933965    0.155029
H      -0.399376    1.852543   -0.997503
H      -0.732994    1.894818    0.738676
H       0.731865   -0.933008   -2.012115
H       1.213274   -2.850988    0.201631
H       2.334603   -1.460863    0.074561
H       0.999154   -0.533052    2.027518
H      -2.683595   -2.990014    1.442346
H      -1.710790   -0.649406   -1.324031
