16

C      -0.118871    1.496420    0.011566
C       0.028381   -0.008544    0.001493
O       0.719078   -0.378291   -1.169905
C       0.846636   -1.780956   -1.310345
C       1.273205   -2.492305   -0.029043
O       1.806240   -3.574341   -0.042237
C       0.882247   -1.794788    1.271068
O       0.751459   -0.390692    1.149132
H       0.871750    1.957030   -0.000169
H      -0.674880    1.822549   -0.869814
H      -0.649405    1.813095    0.911892
H      -0.958831   -0.513081    0.012593
H      -0.111813   -2.234691   -1.623211
H       1.579399   -1.979449   -2.095505
H      -0.067468   -2.251721    1.605203
H       1.636172   -2.001749    2.033679
