25

C       0.393878    1.397045    0.282759
C      -0.091650   -0.032082   -0.025314
C      -1.620662   -0.039013   -0.136075
C       0.583890   -0.583011   -1.305146
C       1.983022   -1.059513   -0.864825
C       1.878502   -1.384000    0.661789
C       2.240003   -2.835147    0.988326
O       2.713931   -0.505335    1.432762
C       0.420958   -1.032682    1.037137
H       1.476178    1.435048    0.422357
H       0.118964    2.083348   -0.526430
H      -0.066656    1.768819    1.204950
H      -1.961911    0.632920   -0.932026
H      -1.999563   -1.042537   -0.360408
H      -2.087848    0.294471    0.797432
H       0.001831   -1.435198   -1.677865
H       0.619942    0.154567   -2.113457
H       2.324545   -1.921610   -1.446000
H       2.726591   -0.267766   -0.997187
H       3.286101   -3.043020    0.730400
H       2.108099   -3.032253    2.056557
H       1.615601   -3.536137    0.424605
H       3.627622   -0.675938    1.179593
H       0.373656   -0.646311    2.059111
H      -0.189543   -1.942569    0.997962
