21

C      -0.027121    1.496711   -0.010659
C       0.039547   -0.010994   -0.003817
C      -0.812749   -0.807538    0.952653
C       0.689108   -0.818566    1.101861
C       1.428972   -1.989982    0.485820
O       1.282733   -3.149457    1.295621
C       0.820208   -2.128771   -0.928683
C       0.366441   -0.705837   -1.319240
O      -0.763840   -0.666740   -2.181550
H       0.914969    1.936808   -0.360080
H      -0.824437    1.842110   -0.677267
H      -0.230121    1.891581    0.989603
H      -1.368607   -0.238218    1.689832
H      -1.322407   -1.701150    0.612466
H       1.129864   -0.333142    1.965775
H       2.495777   -1.725287    0.406743
H       1.819335   -3.849958    0.911165
H       1.518912   -2.564426   -1.650227
H      -0.055289   -2.783158   -0.877864
H       1.205974   -0.163938   -1.786031
H      -0.495427   -1.001512   -3.042831
