15

C       0.012828    1.556732   -0.023114
C      -0.006610    0.054350    0.025412
N       0.367240   -0.748192   -1.210014
C      -0.287830   -1.915975   -0.511749
C       0.570654   -2.011574    0.727016
C       0.755455   -0.727956    1.075908
C      -1.334295   -0.831490   -0.007912
O      -2.508366   -0.665580    0.032735
H       1.012914    1.923999   -0.272919
H      -0.692924    1.938063   -0.767355
H      -0.272268    1.971540    0.948226
H      -0.232882   -0.449977   -1.986016
H      -0.542702   -2.799051   -1.092080
H       0.863301   -2.919811    1.232034
H       1.241841   -0.304846    1.942873
