23

C      -0.026326    1.548900    0.047279
C      -0.049938    0.015109    0.005621
C      -1.499272   -0.491165    0.022665
C       0.743901   -0.523886   -1.223108
C       2.124550   -0.035614   -1.208141
C       3.279402    0.300845   -1.154289
C       0.768610   -2.079573   -1.307476
C       1.397137   -2.591815   -2.604245
O       1.394466   -2.638114   -0.162300
H       0.995154    1.936678    0.052763
H      -0.542964    1.972821   -0.822900
H      -0.535610    1.916309    0.943868
H       0.457835   -0.368900    0.897608
H      -2.019803   -0.239136   -0.909738
H      -1.564354   -1.572066    0.168335
H      -2.050762   -0.019628    0.842243
H       0.250249   -0.151733   -2.133160
H       4.288159    0.632369   -1.127847
H      -0.265601   -2.431199   -1.262405
H       2.428714   -2.240018   -2.705818
H       1.401141   -3.684933   -2.602505
H       0.834261   -2.247874   -3.478747
H       2.294883   -2.289561   -0.136083
