19

O      -0.629124    0.550256    0.526254
C       0.203270    0.896419   -0.270891
C       1.216855    2.002711   -0.041011
C       1.238514    3.003306   -1.176094
C       2.007601    2.738122   -2.451354
C       2.441651    3.850277   -1.530670
C       1.892271    5.226846   -1.855689
O       0.510775    5.023973   -2.142538
C       0.048425    3.942983   -1.342945
H       0.284835    0.405682   -1.268467
H       0.996160    2.477900    0.920711
H       2.202907    1.523397    0.037638
H       2.629008    1.849495   -2.482879
H       1.546390    3.005214   -3.397050
H       3.372687    3.768955   -0.981657
H       2.028087    5.902454   -0.995396
H       2.339406    5.696197   -2.738008
H      -0.810138    3.500410   -1.859730
H      -0.288313    4.289553   -0.351021
