18

C      -0.053369    1.525455    0.099896
C      -0.027428   -0.000849    0.007160
C       0.732631   -0.486208   -1.242898
O       2.060567   -0.021134   -1.253248
C       0.740547   -2.007571   -1.316333
O       1.752377   -2.663269   -1.214838
O      -0.480082   -2.523806   -1.489873
C      -0.547208   -3.957814   -1.544203
H       0.963716    1.924921    0.101387
H      -0.587058    1.963318   -0.751147
H      -0.555723    1.853094    1.014845
H       0.466409   -0.421988    0.891841
H      -1.044827   -0.405439   -0.021872
H       0.210158   -0.111407   -2.136353
H       2.615121   -0.808802   -1.148777
H       0.054832   -4.336965   -2.373249
H      -0.180758   -4.393641   -0.611774
H      -1.599416   -4.198527   -1.692504
