20

C       0.122284    1.505389    0.029868
C      -0.280997    0.049569   -0.236303
C       0.590113   -0.575626   -1.306625
C       1.947385   -1.123502   -1.002086
O       2.456791   -1.149547    0.282766
C       0.832385   -2.097188   -1.420080
C       0.323224   -3.034074   -0.387534
N      -0.266760   -4.167277   -0.853471
O       0.442442   -2.837504    0.823593
H       1.151917    1.553749    0.395975
H       0.058048    2.112632   -0.880217
H      -0.529604    1.961452    0.781364
H      -0.210299   -0.528391    0.687320
H      -1.330714    0.002019   -0.552600
H       0.494570   -0.104923   -2.283361
H       2.734207   -0.968542   -1.735551
H       1.848332   -1.696987    0.817209
H       0.872895   -2.497472   -2.428364
H      -0.438427   -4.321429   -1.830775
H      -0.628200   -4.825460   -0.182774
