17

C      -0.109932    1.514274    0.023318
N       0.117310    0.073678    0.090823
C       1.385153   -0.549988   -0.172678
C       2.572764    0.303230    0.302610
C       1.935849    0.230977    1.716864
O       2.327910    0.530533    2.808719
C       0.752621   -0.589897    1.227545
C       0.018273   -1.640657    2.003740
H       0.715623    2.143333    0.380710
H      -0.320862    1.780891   -1.016856
H      -0.996698    1.748655    0.618823
H       1.432318   -1.363664   -0.888233
H       3.528888   -0.229088    0.302916
H       2.712698    1.282503   -0.161574
H      -0.630594   -1.181397    2.757218
H      -0.607619   -2.236955    1.335254
H       0.716514   -2.301840    2.526043
