16

N       0.121302    1.379730    0.082417
C       0.035165   -0.025847    0.011399
N      -1.114743   -0.689603    0.011980
N      -0.745895   -1.988558    0.001252
C       0.600223   -2.174022   -0.019105
C       1.146499   -0.905661    0.000215
N       2.473290   -0.477740    0.038272
C       3.579868   -1.278007    0.020126
N       3.520433   -2.547466   -0.122186
H       0.423086    1.780598   -0.801402
H      -0.791063    1.767200    0.298842
H      -1.458921   -2.695606   -0.003392
H       1.073462   -3.138480   -0.036075
H       2.597021    0.493314    0.277706
H       4.501223   -0.694021    0.130207
H       4.458363   -2.940091   -0.130036
