15

C       0.011645    1.600891   -0.022834
C       0.018980    0.063691   -0.047888
C       0.657801   -0.517406    1.240903
C      -1.419033   -0.484811   -0.117526
O      -2.409794    0.187775   -0.034617
C       0.720750   -0.452255   -1.224403
C       1.265969   -0.898093   -2.199081
H       1.032794    1.982060    0.055724
H      -0.442600    2.001670   -0.931237
H      -0.570217    1.956820    0.830715
H       0.138098   -0.134395    2.124317
H       0.609055   -1.610041    1.249412
H       1.709342   -0.225085    1.297065
H      -1.466859   -1.589612   -0.238948
H       1.758518   -1.279200   -3.059556
