14

N       0.014191   -1.152214   -0.082807
C       0.009032   -0.000107   -0.009792
C      -0.004537    1.465802    0.011697
O      -0.610616    1.933123    1.222736
C       0.167768    3.016907    1.684188
C       1.644556    2.774819    1.929362
O       2.046060    1.586457    1.246467
C       1.403415    2.083104    0.040940
C       1.175493    3.474518    0.671205
H      -0.572520    1.824590   -0.860825
H      -0.385601    3.712274    2.302267
H       2.223294    3.097729    2.786274
H       2.009659    1.953235   -0.854730
H       1.323014    4.454003    0.239168
