14

C      -0.028711    1.561883   -0.043924
C       0.010473    0.011996   -0.034746
C       0.777985   -0.537443    1.217954
C       2.141919   -0.025820    1.304933
N       3.215169    0.394373    1.376907
C      -1.364347   -0.517590    0.026838
N      -2.444701   -0.914205    0.117419
C       0.655665   -0.480217   -1.265899
N       1.178083   -0.852025   -2.225715
H       0.989865    1.952708   -0.080587
H      -0.581434    1.920165   -0.913501
H      -0.522602    1.919942    0.862398
H       0.223355   -0.242664    2.114218
H       0.797675   -1.630327    1.186228
