15

N      -0.008812    1.497872   -0.037083
C       0.032824    0.043849   -0.051036
C       0.984748   -0.516446   -1.022286
N       1.742620   -0.923032   -1.796330
C       0.033530   -0.626340    1.346015
C      -1.492140   -0.355920    1.530777
O      -1.807429   -1.733555    1.883661
C      -0.796625   -1.847832    0.842744
C      -1.349919   -0.653090    0.005524
H       0.912006    1.873536    0.174076
H      -0.256195    1.850946   -0.957821
H       0.814611   -0.615837    2.104540
H      -2.002419    0.455630    2.041214
H      -0.468790   -2.834762    0.524097
H      -2.132608   -0.672827   -0.751158
