15

O       0.049689    0.030433    0.080257
C      -0.039046    1.223791    0.073674
N      -1.155643    2.037567    0.010374
C      -0.736982    3.372158   -0.178016
C       0.591801    3.341121   -0.042330
N       1.203932    4.547521    0.273647
C       0.118392    5.535065   -0.027061
C      -1.228902    4.753565    0.138092
O       1.083016    2.083298    0.103640
H      -2.028203    1.633386   -0.286348
H       2.069446    4.743380   -0.218125
H       0.195337    6.393593    0.642306
H       0.199437    5.887616   -1.062826
H      -2.001135    5.159120   -0.522569
H      -1.604240    4.822432    1.169533
