16

C      -0.022434    1.379775   -0.024214
O       0.027956   -0.030401   -0.027711
C       0.632294   -0.589704    1.053622
C       1.223697    0.023297    2.135278
N       1.720716   -0.994676    2.941295
C       1.435075   -2.211928    2.388837
N       1.783449   -3.385625    3.087973
C       0.766736   -2.001900    1.202958
H       0.986643    1.816239   -0.013896
H      -0.536988    1.681995   -0.938289
H      -0.575872    1.757951    0.847195
H       1.359072    1.058174    2.393585
H       2.047998   -0.879812    3.884155
H       2.780575   -3.577003    3.044945
H       1.300516   -4.185659    2.698354
H       0.437795   -2.751537    0.501071
