19

O       0.012441    1.387767    0.333086
C       0.027357    0.032563   -0.079963
C      -1.372699   -0.529880    0.132048
C      -1.471987   -2.012306   -0.246085
C      -2.868877   -2.588418   -0.059324
C      -3.038312   -4.011550    0.364792
N      -3.356784   -2.926258    1.295649
C      -3.880300   -2.009785   -0.925061
N      -4.654459   -1.549789   -1.649898
H       0.881270    1.765143    0.167989
H       0.307605   -0.061787   -1.142036
H       0.758516   -0.555127    0.501159
H      -1.650591   -0.386548    1.182894
H      -2.081299    0.057124   -0.462374
H      -1.169062   -2.153713   -1.291131
H      -0.779455   -2.607118    0.363290
H      -3.894881   -4.578637    0.014712
H      -2.128393   -4.588953    0.507061
H      -2.598499   -2.789117    1.960653
