12

C      -0.036193    1.451027   -0.102853
C      -0.010894   -0.001128   -0.071620
C       0.028873   -1.207274   -0.048050
C       0.074768   -2.656938   -0.019374
C      -1.265250   -3.346891    0.143713
O       1.119273   -3.265365   -0.119828
H       0.566040    1.866109    0.712649
H       0.382656    1.824590   -1.043658
H      -1.054766    1.840457   -0.005884
H      -1.743954   -3.023012    1.074205
H      -1.935721   -3.063956   -0.675001
H      -1.121695   -4.428343    0.153274
