20

C      -0.228684    1.521372   -0.023239
C       0.046886    0.035141   -0.026860
C       0.600954   -0.744349   -1.150478
C       1.658880    0.026416   -1.934981
C       2.398806    0.203560   -0.590496
C       3.848713   -0.285230   -0.432941
O       4.295412    1.023701   -0.021550
C       2.948787    1.531821   -0.034638
N       1.375867   -0.596810    0.162936
H       0.421015    2.084732   -0.696134
H      -1.261832    1.699985   -0.339952
H      -0.115848    1.935243    0.984156
H      -0.679418   -0.522982    0.562329
H       0.186037   -1.700989   -1.452331
H       2.218115   -0.599457   -2.633936
H       1.327698    0.926317   -2.462846
H       3.969087   -1.035896    0.357639
H       4.351377   -0.624476   -1.347547
H       2.845878    2.411313   -0.683665
H       2.591352    1.780441    0.972809
