16

O      -0.018124   -0.035808    0.146492
C       0.038619    1.151381   -0.047585
C       1.306299    1.945833   -0.047968
O       2.466599    1.210235    0.198742
C       3.510118    2.204453    0.140988
C       2.701293    3.454865   -0.155570
C       1.558014    3.046643   -1.143891
N       0.544844    3.926680   -0.462885
C       1.367830    3.350927    0.657806
H      -0.857850    1.770604   -0.247230
H       4.039741    2.241620    1.099857
H       4.224385    1.946217   -0.649232
H       3.200079    4.418543   -0.265670
H       1.598409    2.915205   -2.225706
H       0.804852    4.906539   -0.600924
H       1.183172    3.579551    1.707979
