16

O      -0.037088    1.421633   -0.024574
C      -0.016072    0.008698    0.020012
C      -1.413439   -0.582631    0.039805
O      -2.031870   -0.172814   -1.192859
C      -3.313403   -0.532074   -1.364409
C      -4.119627   -0.214392   -2.437224
N      -5.290833   -0.822180   -2.117915
N      -5.226903   -1.464145   -0.948118
N      -4.013658   -1.288312   -0.483463
H      -0.595234    1.660255   -0.772970
H       0.544372   -0.414913   -0.828582
H       0.504587   -0.275763    0.940063
H      -1.390641   -1.676461    0.102224
H      -1.993512   -0.196823    0.884635
H      -3.964188    0.353008   -3.337004
H      -6.152454   -0.838308   -2.639962
