18

C       0.162015    1.481559    0.157089
C      -0.040378   -0.023661   -0.034367
C       0.784670   -0.616062   -1.222480
N       1.967967   -1.257263   -0.619629
C       1.722321   -1.308750    0.638693
N       0.519432   -0.813894    1.072506
C       2.670155   -1.873446    1.662687
N       3.751456   -2.470032    1.114066
O       2.442604   -1.768464    2.855835
H       1.227160    1.722589    0.237612
H      -0.251064    2.032613   -0.694380
H      -0.340598    1.838320    1.062414
H      -1.107477   -0.238826   -0.147205
H       0.208053   -1.372250   -1.770346
H       1.084047    0.151303   -1.943865
H       0.455451   -0.512832    2.034487
H       3.860081   -2.448166    0.112225
H       4.477680   -2.827780    1.710435
