16

O       0.097401    1.366725   -0.082842
C       0.040925   -0.031592    0.033426
C      -1.404449   -0.537824    0.037473
O      -2.001169   -0.190715   -1.187982
C      -3.051626   -1.138632   -1.382933
C      -2.510582   -2.411569   -0.698419
O      -1.431753   -1.939478    0.120810
C      -2.194725    0.052503    1.165225
N      -2.825907    0.476944    2.034422
H      -0.348099    1.607215   -0.903411
H       0.547625   -0.557161   -0.788059
H       0.521866   -0.304874    0.975751
H      -3.975999   -0.786580   -0.909445
H      -3.211794   -1.248264   -2.456338
H      -3.267175   -2.902911   -0.079283
H      -2.102530   -3.134511   -1.410649
