20

O       0.370299    0.806080   -1.541485
C       0.183101    1.499442   -0.564227
N       1.068481    1.679360    0.452598
C       2.394556    1.081555    0.461812
C       3.505412    2.065701    0.074207
C       4.892139    1.417879    0.105477
C       6.010772    2.401735   -0.292935
C       7.338164    1.800403   -0.255567
C       8.420893    1.279955   -0.215406
H      -0.756502    2.062278   -0.393161
H       0.815769    2.316203    1.191428
H       2.589977    0.663495    1.456778
H       2.361471    0.252013   -0.248739
H       3.293102    2.454650   -0.929091
H       3.483932    2.927795    0.755379
H       5.103425    1.027655    1.108329
H       4.917859    0.557030   -0.572587
H       5.812743    2.788918   -1.301049
H       5.985876    3.272817    0.375383
H       9.382240    0.830508   -0.185616
