23

C      -0.058148    1.574392   -0.039809
C       0.016659    0.043285    0.027825
O       0.776755   -0.380292    1.164588
C      -1.345496   -0.603209    0.008530
C      -1.933177   -1.259108   -1.001242
C      -1.402815   -1.532826   -2.374742
C      -3.289045   -1.802625   -0.594645
C      -3.589024   -1.082082    0.738949
C      -2.208514   -0.619573    1.258656
H       0.948468    1.999859    0.009911
H      -0.535639    1.901562   -0.968471
H      -0.642734    1.978469    0.795231
H       0.600424   -0.310245   -0.827953
H       0.364429   -0.001342    1.948287
H      -1.410748   -2.610150   -2.585745
H      -2.034597   -1.064733   -3.141027
H      -0.382133   -1.170485   -2.518953
H      -4.061011   -1.624150   -1.353445
H      -3.234268   -2.894735   -0.470096
H      -4.215655   -0.205552    0.545080
H      -4.125294   -1.710281    1.454888
H      -1.792433   -1.324608    1.992277
H      -2.263807    0.353115    1.764339
