15

C      -0.004115    1.438059   -0.003097
O      -0.009402    0.020774   -0.003752
C       0.585231   -0.602736   -1.032305
C       0.723692   -1.960127   -1.251148
N       1.406690   -2.160047   -2.446467
C       1.665099   -0.975194   -2.920343
N       1.186358    0.022573   -2.097671
C       0.262561   -3.006806   -0.423633
C      -0.135166   -3.891974    0.289832
H       1.019264    1.836555    0.018311
H      -0.538756    1.842919   -0.873155
H      -0.523003    1.745422    0.905116
H       2.186683   -0.751368   -3.838434
H       1.262586    1.013361   -2.249479
H      -0.483976   -4.675254    0.914992
