16

N      -0.002770   -1.156877   -0.029973
C       0.000020    0.000134    0.002734
C      -0.006823    1.423495    0.044465
C       0.304268    2.292386   -1.162790
C       1.170027    2.432056    0.044789
C       0.468413    3.276892    1.121332
C      -0.706512    2.280560    1.095332
C      -2.133490    2.416008    1.386276
O      -1.229984    1.729475    2.275698
H       0.736896    1.760304   -2.002837
H      -0.397857    3.076481   -1.434493
H       2.224194    2.189941    0.026818
H       0.969108    3.233758    2.090945
H       0.262952    4.319085    0.860835
H      -2.523501    3.359821    1.763619
H      -2.852893    1.778137    0.875769
