16

C       0.206553    1.639982   -0.050278
C      -0.050700    0.146226    0.136420
O       0.393048   -0.561820   -1.030535
C       1.215516   -1.672230   -0.664133
C       1.434932   -1.507450    0.826379
C       0.708315   -0.491686    1.270004
C       0.584333   -2.955637   -0.999494
C       0.082760   -4.014032   -1.268648
H       1.278431    1.835277   -0.146934
H      -0.296087    1.996852   -0.953381
H      -0.179383    2.205718    0.804252
H      -1.135060   -0.013540    0.262004
H       2.159987   -1.597254   -1.224820
H       2.073703   -2.169503    1.395093
H       0.636751   -0.143518    2.292814
H      -0.365502   -4.945904   -1.510659
