18

C      -0.037022    1.507071    0.107702
C      -0.015846    0.016916    0.030799
C       0.008497   -0.744417   -1.084500
C      -0.029593   -2.235784   -0.779023
C       0.051873   -2.279615    0.744628
C       1.266478   -1.689266    1.400807
C       0.012466   -0.842854    1.245995
C       0.067976   -0.244288   -2.410671
N       0.110566    0.144360   -3.502644
H       0.834525    1.878696    0.660067
H      -0.045302    1.965070   -0.883590
H      -0.923121    1.850273    0.656062
H      -0.959620   -2.684555   -1.148648
H       0.793464   -2.775259   -1.261764
H      -0.483496   -3.060734    1.270124
H       1.504860   -2.035714    2.400705
H       2.127253   -1.434825    0.790408
H      -0.528561   -0.535715    2.134120
