25

C      -0.172098    1.484008    0.071263
C       0.013406   -0.030162    0.024760
C       1.123759   -0.510955   -0.962594
C       2.104166   -0.561176    0.245786
C       0.873914   -0.603384    1.196782
C       0.472349   -2.013533    1.654421
C       0.699428   -3.152549    0.641172
C       0.115578   -2.918698   -0.761183
C       0.850987   -1.871768   -1.622048
H       0.783434    2.004043    0.204194
H      -0.623358    1.855209   -0.855818
H      -0.825019    1.776707    0.901336
H      -0.965425   -0.504641   -0.104036
H       1.392493    0.212140   -1.740298
H       2.811416   -1.394170    0.288581
H       2.670767    0.367676    0.349048
H       0.931258    0.052847    2.072038
H       1.025480   -2.261161    2.569560
H      -0.589138   -1.993209    1.939110
H       1.773546   -3.359563    0.551482
H       0.258779   -4.065329    1.060107
H       0.122971   -3.867796   -1.310646
H      -0.942682   -2.643075   -0.666520
H       0.263156   -1.712205   -2.535269
H       1.812121   -2.290681   -1.951083
