12

C       0.075606   -3.752821   -0.019004
C       0.052521   -2.544825   -0.012087
C       0.025711   -1.187726   -0.004306
C      -0.007723    0.024323    0.002774
C      -0.042577    1.431241    0.010942
C      -1.132888    2.251787    0.030297
O      -0.697743    3.538223    0.031396
C       0.655533    3.437012    0.012390
N       1.109908    2.232063   -0.000392
H       0.097776   -4.814365   -0.025106
H      -2.196252    2.089854    0.043911
H       1.209084    4.362729    0.009904
