25

C       0.004224    1.625364    0.029186
C      -0.064610    0.095326   -0.036268
C       0.783361   -0.516787   -1.156041
C       2.309929   -0.314733   -1.040808
C       2.888994   -1.304544   -2.070603
C       1.972601   -2.539524   -1.996066
C       2.204429   -3.489945   -0.785813
C       0.917778   -2.949561   -0.102573
C       0.635197   -2.040709   -1.339790
H       1.019055    1.974567    0.245401
H      -0.304877    2.076332   -0.920756
H      -0.653158    2.017355    0.811757
H       0.244367   -0.321314    0.930633
H      -1.109679   -0.210744   -0.177567
H       0.465711   -0.053683   -2.103439
H       2.623354    0.716445   -1.226313
H       2.645738   -0.572320   -0.027190
H       2.831439   -0.861644   -3.072325
H       3.940951   -1.549129   -1.888332
H       1.891179   -3.049970   -2.958274
H       2.159664   -4.551423   -1.042227
H       3.135649   -3.316386   -0.237154
H       0.149420   -3.702456    0.089132
H       1.093735   -2.410971    0.832318
H      -0.288393   -2.298178   -1.864166
