21

C       0.187966    1.346344   -0.448392
N       0.037243    0.057838    0.214648
C       0.801375    0.010323    1.456940
C      -1.356609   -0.317264    0.372991
C      -1.599300   -1.853879    0.403261
C      -0.939874   -2.564403   -0.781400
O      -1.080087   -2.468529    1.579644
C      -3.069414   -2.063790    0.365799
N      -4.216768   -2.203753    0.368898
H       1.250312    1.541803   -0.623487
H      -0.317473    1.332518   -1.418505
H      -0.217421    2.191615    0.139071
H       0.436188    0.739569    2.206275
H       0.749569   -0.988742    1.889198
H       1.849360    0.243270    1.246353
H      -1.816250    0.121113    1.281222
H      -1.921199    0.077489   -0.477420
H       0.126518   -2.337572   -0.771745
H      -1.093944   -3.641789   -0.698688
H      -1.366563   -2.214225   -1.724298
H      -1.520993   -2.081378    2.345249
