19

C      -0.054801    1.685311    0.106820
C       1.223907    0.883216    0.041969
C       2.247254    0.780089   -1.081732
O       3.312333    0.609436   -0.115891
C       2.409887    0.798078    0.994983
C      -0.089602    0.187869    0.099562
C      -0.642402   -0.809976    1.111434
C      -1.125528   -1.565091   -0.146197
O      -0.578015   -0.549564   -1.022356
H      -0.296662    2.204463    1.030731
H      -0.371280    2.194621   -0.799202
H       2.137843   -0.087806   -1.742764
H       2.385544    1.686077   -1.686506
H       2.632764    1.717442    1.554295
H       2.422928   -0.053964    1.688746
H       0.104347   -1.330303    1.715106
H      -1.432882   -0.429039    1.760684
H      -0.662382   -2.542234   -0.321256
H      -2.211167   -1.652491   -0.261572
