19

C       1.346814    0.323677    1.033117
C       0.203551    0.179109    0.015741
N       0.766776   -0.307832   -1.252699
C      -0.179194   -0.464237   -2.358848
C      -0.807594    0.834119   -2.909774
C       0.500759   -1.187791   -3.446574
N       1.030976   -1.725643   -4.320776
C      -0.822628   -0.745307    0.505912
C      -1.670873   -1.487418    0.923204
H       1.843265   -0.638214    1.177864
H       2.082909    1.049465    0.671488
H       0.960501    0.675802    1.992088
H      -0.275950    1.168940   -0.090839
H       1.529581    0.301091   -1.532963
H      -0.982416   -1.115186   -1.992950
H      -0.032271    1.512204   -3.279118
H      -1.489954    0.613288   -3.735187
H      -1.375618    1.341104   -2.125707
H      -2.416667   -2.146909    1.293941
