17

O      -0.091192    1.415166   -0.066141
C      -0.010515    0.006555   -0.079895
C      -1.382489   -0.638585   -0.356185
C      -1.784856    0.022003   -1.703652
C      -0.614045   -0.802814   -2.262806
O      -0.317579   -0.987361   -3.600259
C      -0.835554   -1.898717   -1.180120
O       0.569645   -2.050716   -0.935693
C       0.644166   -0.648278   -1.323017
H       0.795826    1.760945    0.073257
H       0.464175   -0.384172    0.828123
H      -2.088295   -0.739477    0.463951
H      -2.738421   -0.368809   -2.075747
H      -1.764636    1.109309   -1.764881
H      -1.128097   -1.220916   -4.065113
H      -1.416067   -2.817446   -1.250313
H       1.620901   -0.325382   -1.682868
