18

O      -0.247765    1.383132    0.134765
C      -0.088245    0.016974   -0.008576
C      -0.393572   -0.950376    1.102985
C      -1.195717   -1.015327   -0.180581
C      -2.690713   -0.812331   -0.209186
C      -3.434903   -2.006410    0.202083
N      -4.005013   -2.958373    0.524718
C      -0.367682   -1.738928   -1.251538
C       0.752016   -0.651509   -1.101757
H       0.365040    1.697589    0.808452
H       0.291805   -1.751791    1.370533
H      -0.924003   -0.508064    1.941148
H      -2.966181    0.017582    0.451746
H      -3.020889   -0.531773   -1.217031
H      -0.083559   -2.767922   -1.013556
H      -0.834252   -1.722761   -2.239541
H       0.832077   -0.023519   -1.991539
H       1.750870   -0.994368   -0.813355
