17

N      -0.056416    1.482609    0.193103
C       0.105214    0.046770   -0.024874
C       0.887754   -0.576409    1.147713
C       0.963358   -2.035927    0.979143
N       1.000337   -3.183164    0.849476
N       2.244239   -0.025392    1.206033
C       2.431698    1.103261    2.124620
C       2.966317   -0.240437    2.461120
H       0.808394    1.962098   -0.035665
H      -0.761519    1.846980   -0.438672
H      -0.886052   -0.416246   -0.053833
H       0.623752   -0.220367   -0.957542
H       0.323844   -0.378404    2.076227
H       3.095401    1.884532    1.765953
H       1.562846    1.457721    2.672824
H       2.462353   -0.797536    3.248364
H       4.023557   -0.461047    2.354593
