14

O      -0.063168    1.426210   -0.008781
C       0.025515    0.013500    0.008272
C       0.689876   -0.560166   -1.256793
C      -0.071189   -0.114100   -2.519297
C       0.575883   -0.574953   -3.744103
N       1.101209   -0.945742   -4.703920
C       0.723466   -0.467207    1.216823
N       1.299553   -0.823257    2.152781
H       0.823188    1.791671    0.099104
H      -1.012305   -0.336771    0.060974
H       1.729643   -0.219423   -1.305453
H       0.714530   -1.652092   -1.190845
H      -1.098152   -0.497807   -2.499716
H      -0.143203    0.977718   -2.538586
