14

C       0.112617    1.136046   -0.423286
O      -0.445029    0.279445    0.577421
C       0.455145   -0.459449    1.261484
C       1.027998   -1.676258    1.048049
N       1.869515   -2.006726    2.106442
C       1.786209   -0.998944    2.927298
O       2.414976   -0.864107    4.108956
N       0.961431   -0.013614    2.487917
H       0.673889    0.556409   -1.164518
H      -0.728188    1.637419   -0.906573
H       0.778172    1.886785    0.021336
H       0.888479   -2.337011    0.207601
H       2.930561   -1.671982    4.228436
H       0.693249    0.820942    2.981176
