17

O      -0.048713   -0.048801    0.004847
C      -0.046091    1.154719    0.010623
C      -1.198696    2.110997    0.032068
C      -0.713687    3.349186    0.780936
C      -0.735519    3.356458   -0.718560
C       0.784141    3.267362   -1.017416
C       1.397201    4.268617    0.004754
C       0.814013    3.257391    1.034558
C       1.124430    2.122506   -0.001704
H      -2.228322    1.781936    0.045468
H      -1.378691    3.937738    1.398004
H      -1.418125    3.950869   -1.310269
H       1.095996    3.217829   -2.059948
H       2.490387    4.268597   -0.011157
H       1.016566    5.294461    0.015279
H       1.156073    3.197779    2.067041
H       2.129622    1.711933   -0.018330
