22

C      -0.353653    1.473851    0.036318
C       0.050727   -0.001982    0.033132
C       0.903718   -0.342579    1.265891
O      -1.159989   -0.756181    0.075801
C       0.775384   -0.363596   -1.259447
C       0.038971   -0.649878   -2.506650
N       0.659921   -1.787715   -1.790601
C       2.123018   -1.725313   -2.145755
C       2.281595   -0.304957   -1.544412
H       0.527530    2.120921   -0.013743
H      -0.998283    1.692838   -0.818694
H      -0.904230    1.710007    0.951630
H       0.303489   -0.196615    2.167715
H       1.225084   -1.389237    1.235387
H       1.794478    0.289133    1.339428
H      -0.917626   -1.660648   -0.171733
H      -1.043276   -0.662091   -2.450860
H       0.454576   -0.353128   -3.467994
H       2.672967   -2.497839   -1.605106
H       2.311739   -1.838856   -3.218324
H       2.615116    0.498922   -2.206495
H       2.899525   -0.297382   -0.646122
