19

C       0.598282    1.208156   -0.406903
C       0.183572   -0.181716    0.030053
N       1.246785   -1.113160    0.458631
C       0.290044   -0.641368    1.457011
C       0.891842    0.197950    2.578521
O       2.161862    0.715417    2.247117
C      -0.924883   -0.887949   -0.729623
N      -1.707657   -0.112996   -1.524303
O      -1.095717   -2.092839   -0.620938
H       1.426155    1.560037    0.208229
H       0.909347    1.216653   -1.457194
H      -0.224276    1.923099   -0.282715
H       0.979492   -2.047560    0.148861
H      -0.477962   -1.344934    1.769807
H       0.235299    1.041280    2.825520
H       0.949865   -0.439245    3.476893
H       2.548565    0.060135    1.645243
H      -1.555909    0.871671   -1.643480
H      -2.443606   -0.561918   -2.043803
