21

C      -0.453301    1.407290    0.409151
C       0.029830    0.005193    0.081603
O       0.723493   -0.502000    1.205297
C       1.214729   -1.809960    0.990655
C       1.911204   -2.291966    2.174606
C       2.484091   -2.718984    3.142214
C       3.201818   -3.211050    4.308782
O       2.373976   -4.067930    5.071367
C       3.033961   -4.560252    6.213938
H       0.393161    2.059435    0.641632
H      -0.996899    1.831039   -0.440541
H      -1.120029    1.389475    1.275702
H      -0.821943   -0.650809   -0.167994
H       0.692634    0.018826   -0.800961
H       0.386869   -2.499024    0.747143
H       1.898337   -1.826933    0.123364
H       4.114332   -3.744484    3.988262
H       3.539580   -2.356338    4.921058
H       2.329095   -5.207786    6.739967
H       3.928765   -5.147134    5.950617
H       3.344841   -3.748111    6.890707
