21

C       0.102236    1.434617    0.153071
C      -0.063339   -0.073866    0.062866
C      -1.473087   -0.485291   -0.353619
O       0.931585   -0.671782   -0.860343
C       1.272614   -1.708001    0.120408
C       2.692936   -1.876087    0.685134
C       2.448409   -1.775398    2.230313
C       1.232188   -0.849490    2.318564
C       0.578474   -0.900103    1.164136
H       1.131679    1.690835    0.411076
H      -0.144551    1.899231   -0.807270
H      -0.567239    1.849438    0.913978
H      -1.705327   -0.071996   -1.339976
H      -1.567818   -1.572842   -0.405778
H      -2.212111   -0.109797    0.361798
H       0.819736   -2.661911   -0.182226
H       3.192480   -2.801190    0.383918
H       3.304528   -1.029297    0.357719
H       2.261578   -2.764009    2.671576
H       3.311876   -1.359880    2.760159
H       1.048216   -0.190470    3.158895
