18

C      -0.048953    1.524986   -0.067416
C       0.006682    0.003428   -0.019325
C       1.331402   -0.704425   -0.216208
C       0.714007   -0.700412    1.169983
C       1.353903    0.102080    2.294638
C       0.134374   -1.941647    1.625297
N      -0.306568   -2.929882    2.033785
C      -1.168711   -0.633928   -0.553457
C      -2.164511   -1.129810   -1.008713
H       0.885591    1.982162    0.262982
H      -0.234400    1.847745   -1.095860
H      -0.863160    1.905736    0.555764
H       1.333277   -1.633870   -0.771495
H       2.210775   -0.083351   -0.350980
H       1.861070    0.989406    1.913144
H       0.606648    0.417750    3.028317
H       2.096929   -0.511628    2.812282
H      -3.039749   -1.588297   -1.398116
