21

C       0.075443    1.469755    0.061910
C      -0.149725   -0.030309   -0.096964
N       0.828649   -0.600054   -1.026649
C       0.700793   -2.033650   -1.257992
C      -0.627489   -2.414344   -1.811709
N      -1.668838   -2.652888   -2.254761
C       1.801969   -2.548970   -2.167526
C       3.161778   -2.831574   -1.592062
C       2.280896   -3.971633   -2.038260
H       1.094763    1.676094    0.400230
H      -0.079520    1.993941   -0.888187
H      -0.626901    1.889145    0.787800
H      -0.013501   -0.530993    0.870519
H      -1.190689   -0.222342   -0.406864
H       0.779916   -0.110951   -1.916339
H       0.791541   -2.532228   -0.283713
H       1.765039   -2.138618   -3.172961
H       4.029838   -2.581637   -2.191157
H       3.298841   -2.675799   -0.527434
H       1.824678   -4.592771   -1.274439
H       2.538829   -4.506148   -2.945070
