19

C      -0.208228    1.514291   -0.094851
C       0.024168    0.000943    0.000324
C       0.854849   -0.347814    1.241971
O      -1.220993   -0.684484    0.182905
C       0.703379   -0.529178   -1.247468
N       1.621324    0.179556   -1.903613
N       2.006847   -0.620893   -2.916294
C       1.359176   -1.810453   -2.929767
C       0.498904   -1.792691   -1.853922
H       0.736440    2.046702   -0.226502
H      -0.842552    1.754147   -0.955286
H      -0.702573    1.869381    0.813771
H       0.345105    0.005636    2.143175
H       0.982941   -1.430749    1.317481
H       1.841514    0.118063    1.181659
H      -1.781729   -0.468549   -0.570383
H       2.698261   -0.285795   -3.565212
H       1.556136   -2.555137   -3.684883
H      -0.179088   -2.566994   -1.537717
