16

C       0.018730    1.481955   -0.363276
C       0.073446    0.013805    0.082797
O       0.866924   -0.151531    1.255375
C      -1.272442   -0.547112    0.252370
C      -2.386555   -0.968791    0.434347
C      -3.712208   -1.544746    0.603310
C      -3.865100   -2.879199   -0.133011
O      -4.870938   -3.214974   -0.695072
H       1.036349    1.864458   -0.476215
H      -0.510012    1.581047   -1.315622
H      -0.506008    2.089240    0.381468
H       0.601035   -0.566003   -0.684253
H       0.383757    0.245798    1.988592
H      -3.899186   -1.751380    1.668562
H      -4.508979   -0.874102    0.265510
H      -2.963553   -3.527804   -0.093467
