21

C      -0.008203    1.544057    0.095034
C       0.082737    0.038191   -0.069668
C       0.942285   -0.455800   -1.245794
C       1.465371   -1.825997   -0.762493
C       1.109314   -1.854997    0.764423
C       2.294622   -2.215430    1.662372
O       0.724608   -0.513237    1.079558
C      -0.019513   -2.770248    1.014123
C      -0.939598   -3.516361    1.221038
H       0.991341    1.977309    0.201323
H      -0.492439    1.993547   -0.777471
H      -0.592172    1.801729    0.982811
H      -0.930380   -0.388065   -0.153514
H       0.374451   -0.520822   -2.177340
H       1.771520    0.240147   -1.408360
H       0.994421   -2.660088   -1.284678
H       2.545703   -1.917616   -0.897136
H       3.115758   -1.517472    1.477017
H       2.006562   -2.150283    2.714175
H       2.634411   -3.233809    1.456083
H      -1.753527   -4.172435    1.408317
