19

C      -0.219826    1.534107   -0.008242
C       0.045656    0.030163    0.018955
C       0.780877   -0.521088   -1.263455
C       1.931515   -1.353141   -0.672684
O       2.913090   -0.454329   -0.138934
C       2.354087    0.126704    1.069485
C       0.950493   -0.484279    1.180698
C       1.273918   -1.875685    0.614728
O       1.056089   -2.979625    1.021955
H       0.700599    2.110848   -0.142450
H      -0.883986    1.784052   -0.842408
H      -0.701744    1.873464    0.914738
H      -0.918833   -0.481050    0.116901
H       0.114277   -1.123084   -1.888040
H       1.191533    0.286406   -1.876599
H       2.418667   -2.076721   -1.322888
H       2.981562   -0.147707    1.926732
H       2.358586    1.217557    0.976785
H       0.506397   -0.459403    2.173995
