21

C       0.305198    1.517913    0.123278
C       0.210812   -0.008387    0.081861
C      -0.278268   -0.538510   -1.266817
N      -0.380206   -1.992596   -1.245918
C      -0.400341   -2.615645   -2.342850
N      -0.353452   -2.310606   -3.697950
C       0.017837   -3.687956   -4.088285
C      -0.322449   -4.113967   -2.623805
O       0.681509   -4.795902   -1.921504
H       1.002674    1.896658   -0.632818
H      -0.669152    1.982701   -0.066351
H       0.654360    1.868039    1.099277
H       1.188815   -0.454410    0.299521
H      -0.470009   -0.370103    0.860944
H      -1.264316   -0.102939   -1.491360
H       0.401202   -0.186538   -2.064096
H      -0.007367   -1.455668   -4.110025
H      -0.595045   -4.106254   -4.890855
H       1.081551   -3.827417   -4.303881
H      -1.286618   -4.632775   -2.548548
H       0.822239   -4.297483   -1.106581
