15

O       0.522686    1.049118    1.254311
C       0.233968    1.430159    0.139189
N       1.073775    1.353779   -0.931163
C       2.420480    0.850513   -0.785638
C       3.369831    1.868256   -0.071306
C       4.709574    1.311329    0.092949
C       5.792944    0.810051    0.216071
C       3.393228    3.136281   -0.815457
N       3.368059    4.116592   -1.425911
H      -0.747136    1.868289   -0.123067
H       0.810862    1.811185   -1.789676
H       2.399512   -0.052619   -0.172885
H       2.822834    0.604013   -1.769339
H       2.927013    2.062865    0.913700
H       6.757775    0.381333    0.334988
