18

O      -0.000353    1.406761   -0.064323
C       0.038035   -0.004092    0.074061
C       0.586122   -0.511630    1.426143
C      -0.015912   -1.921011    1.558750
C      -1.423996   -1.764366    0.982504
O      -2.301749   -1.034621    1.872986
C      -2.410509    0.067086    0.941509
C      -1.386162   -0.573637   -0.012600
H       0.895845    1.741755    0.037161
H       0.635018   -0.448107   -0.739896
H       1.679382   -0.498664    1.471588
H       0.207681    0.136045    2.223837
H       0.544299   -2.644927    0.953424
H      -0.038166   -2.292166    2.587098
H      -1.880683   -2.705350    0.656516
H      -3.425102    0.150831    0.532994
H      -2.119005    1.023831    1.385950
H      -1.722221   -0.732676   -1.036847
