13

C      -0.116331    1.476584   -0.098005
C       0.351269    0.051111   -0.077864
O       1.237036   -0.430694    0.554158
O      -0.434156   -0.700057   -0.966268
C      -0.232100   -2.029088   -1.018721
C       0.173691   -2.825202   -2.043960
N       0.098049   -4.110643   -1.575306
N      -0.306936   -4.143467   -0.387527
O      -0.545979   -2.771217    0.029574
H       0.536870    2.078431    0.531705
H      -0.117127    1.858135   -1.122341
H      -1.144767    1.529342    0.271256
H       0.498693   -2.577772   -3.038411
