15

O       0.020289    0.150846    0.697541
C      -0.008593    1.181016    0.085108
C      -1.319995    1.914840   -0.184778
O      -1.261700    2.969902   -1.123038
C      -0.120371    3.786412   -0.892411
C       1.124465    2.937343   -1.147542
O       1.142334    1.760238   -0.325787
C      -0.155572    4.942110   -1.777047
C      -0.137356    5.894338   -2.507668
H      -2.041568    1.185487   -0.557406
H      -1.681689    2.272199    0.793710
H      -0.113671    4.128661    0.157345
H       1.145352    2.638586   -2.200521
H       2.037867    3.487967   -0.911791
H      -0.136982    6.740457   -3.150363
