18

C      -0.379978    1.414573    0.057378
C      -0.010722   -0.059243    0.119150
O       0.243552   -0.621709    1.151313
C       0.027344   -0.774767   -1.240704
O       0.288112   -2.150779   -1.052879
C      -0.438803   -2.939873   -1.989794
C      -1.570936   -2.066592   -2.484720
N      -2.353926   -1.468425   -1.384879
C      -1.274391   -0.692207   -2.028845
H       0.119157    1.924880   -0.773197
H      -1.460454    1.510132   -0.101960
H      -0.120695    1.895368    1.001358
H       0.824445   -0.293862   -1.838935
H       0.197751   -3.235705   -2.838528
H      -0.776403   -3.842455   -1.470481
H      -2.043503   -2.273457   -3.438871
H      -3.252031   -1.155967   -1.746555
H      -1.501550    0.187074   -2.621045
