16

C       0.065081    1.470687   -0.008030
N       0.073643    0.010056   -0.003584
C       0.040638   -0.657118   -1.225924
C      -0.028702   -1.987801   -1.361050
C       0.048060   -2.835778   -0.162271
O       1.248692   -2.702973    0.626938
C       0.043835   -2.150003    1.153899
C      -0.034303   -0.650353    1.214447
O      -0.197542   -0.065871    2.268773
H       0.962777    1.854882   -0.501902
H      -0.819733    1.851352   -0.528970
H       0.043250    1.806372    1.026910
H       0.050637    0.005045   -2.084105
H      -0.088775   -2.433366   -2.344919
H      -0.327048   -3.855155   -0.216500
H      -0.341487   -2.631771    2.049431
