17

O       0.545219    0.674685    0.793184
C      -0.034469    0.295054   -0.436631
C      -1.384563   -0.389771   -0.214288
O      -1.925603   -0.941728   -1.447874
C      -1.767309   -2.295652   -0.953081
C      -1.330003   -1.784224    0.437068
O      -0.039950   -2.146336    0.891481
C      -2.409323    0.564429    0.380638
O      -2.945715    0.411799    1.446141
H       0.722676   -0.150848    1.262287
H      -0.181759    1.206737   -1.026868
H       0.608132   -0.377581   -1.021138
H      -2.703943   -2.860255   -1.006746
H      -0.973309   -2.832954   -1.484232
H      -2.080813   -1.899734    1.222540
H      -0.124795   -2.835627    1.555771
H      -2.657249    1.420151   -0.285925
