20

O       0.204035    0.348127    1.105816
C      -0.083523    0.140539   -0.285868
C      -1.482623   -0.432275   -0.365565
C      -2.034548   -0.935471   -1.747751
C      -2.204362   -2.326014   -1.122606
N      -0.844125   -2.731942   -0.691589
C      -1.665140   -1.861208    0.186581
C      -1.945270   -2.208499    1.616025
O      -0.797035   -2.065518    2.430881
H       1.141728    0.541783    1.197350
H      -0.019778    1.093553   -0.831258
H       0.624186   -0.569575   -0.729674
H      -2.188475    0.256688    0.108924
H      -2.974091   -0.452486   -2.022740
H      -1.341972   -0.898274   -2.593050
H      -2.961437   -3.069050   -1.343617
H      -0.907174   -3.675062   -0.308194
H      -2.779311   -1.584447    1.981256
H      -2.267412   -3.254758    1.696159
H      -0.388725   -1.218020    2.190262
