22

C       0.028255    1.588138    0.178957
C      -0.113225    0.076871    0.149642
O       0.874075   -0.479172    1.014645
C       0.826724   -1.849182    1.098792
C      -0.183951   -2.599294    1.934413
C       1.304271   -2.720719    2.230014
N       2.012263   -3.601763    1.302109
C       1.736140   -5.025155    1.344397
C       1.525967   -2.815122    0.129967
H       1.024252    1.887727   -0.159098
H      -0.715479    2.052973   -0.475149
H      -0.116262    1.966912    1.194790
H      -1.114750   -0.232778    0.483933
H       0.023743   -0.305876   -0.873518
H      -0.720568   -1.972696    2.640452
H      -0.756118   -3.432029    1.533726
H       1.730978   -2.461060    3.192758
H       0.667887   -5.287483    1.238883
H       2.287178   -5.526393    0.541886
H       2.089270   -5.432940    2.297428
H       0.873553   -3.362894   -0.563324
H       2.352559   -2.361797   -0.427287
