19

C       0.292678    1.576113    0.026795
C       0.157579    0.126610    0.036870
C       0.034426   -1.072204    0.054495
C      -0.026726   -2.506903    0.063925
C      -0.496135   -3.340846    1.231325
O      -1.549425   -2.710772    1.947291
C      -2.438222   -2.862233    0.793068
C      -3.222741   -1.619254    0.434224
C      -1.276908   -3.384941   -0.057380
H       1.333044    1.875785   -0.142476
H      -0.314669    2.032585   -0.763081
H      -0.023910    2.010505    0.981625
H       0.805603   -2.987457   -0.449934
H       0.118190   -4.065400    1.754428
H      -3.123631   -3.693681    1.007581
H      -2.561932   -0.787179    0.191044
H      -3.867634   -1.827127   -0.426740
H      -3.863891   -1.329043    1.273049
H      -1.351463   -4.152312   -0.816383
