16

C      -0.031661    1.516598   -0.049963
C      -0.008090    0.007648    0.012340
N      -0.027154   -0.619464   -1.171007
C      -0.008070   -1.954007   -1.186943
C       0.030604   -2.747174   -0.042139
C       0.050391   -2.105003    1.184151
C       0.031229   -0.707721    1.226737
C       0.053191   -0.040418    2.549706
O       0.084955   -0.635156    3.603950
H       0.856013    1.957912    0.415375
H      -0.063028    1.819028   -1.097053
H      -0.906373    1.932458    0.461036
H      -0.024667   -2.414517   -2.172440
H       0.044489   -3.828192   -0.119265
H       0.080459   -2.647921    2.122637
H       0.038586    1.067929    2.530804
