15

O      -0.051182   -0.012890   -0.403864
C      -0.068681    1.144839   -0.128098
C      -1.193228    2.149003    0.313945
C      -0.065910    3.173777    0.585618
C       0.750725    3.203053    1.897234
O       1.745079    2.279169    1.321705
C       1.008046    2.257780    0.085031
C       1.292100    3.360811   -0.962820
O       0.211767    4.184029   -0.403923
H      -1.858922    2.442421   -0.502075
H      -1.795392    1.813398    1.162841
H       1.191910    4.174711    2.135755
H       0.274445    2.772561    2.784278
H       2.272224    3.833752   -0.848588
H       1.111568    3.110588   -2.012936
