17

C      -0.114976    1.570226    0.018076
C       0.046009    0.059216    0.072746
C       1.183710   -0.624112   -0.746460
O       2.373709    0.039947   -0.286985
C       2.204218    0.058905    1.152218
C       0.830121   -0.614829    1.289123
O       0.352127   -0.758960    2.571803
C       1.011977   -1.765205    0.281164
O       0.824074   -2.945568    0.303732
H       0.851958    2.072652   -0.051329
H      -0.704298    1.860304   -0.857111
H      -0.635983    1.934451    0.909499
H      -0.907592   -0.456764   -0.081976
H       1.188045   -0.742086   -1.825592
H       2.997108   -0.516700    1.642328
H       2.223632    1.087855    1.525958
H      -0.185600   -1.559376    2.604720
