23

C      -0.078563    1.563362    0.107210
C       0.045304    0.047245    0.069582
C      -1.167148   -0.597247   -0.591996
C       1.337516   -0.688218   -0.235597
C       2.576048   -0.037357    0.353481
O       2.975771    1.170016   -0.267448
C       1.893411   -0.004026    1.763660
C       0.691447   -0.762552    1.172229
C       0.054146   -1.906959    1.913252
H       0.821405    2.057127    0.468685
H      -0.269454    1.948569   -0.900939
H      -0.924801    1.862110    0.738617
H      -1.318965   -0.172426   -1.590451
H      -1.057146   -1.678345   -0.710463
H      -2.079746   -0.412910   -0.013064
H       1.363090   -1.440225   -1.017617
H       3.409789   -0.752810    0.362183
H       3.784391    1.471273    0.159225
H       2.441380   -0.590753    2.506441
H       1.692014    0.986403    2.181281
H      -0.470266   -1.543986    2.806527
H      -0.673180   -2.451901    1.307253
H       0.810302   -2.625188    2.251833
