21

O       0.068487    1.188372    0.273492
C       0.033059   -0.196957    0.133685
C      -0.830609   -1.025795    1.063510
C      -1.226334   -0.820142   -0.388150
O      -2.213812    0.114932   -0.706527
C      -3.544738   -0.333306   -0.552470
C      -4.243862   -0.222418    0.830131
C      -5.515871    0.253806    0.074494
C      -4.610403    0.611372   -1.137738
H      -0.771826    1.513947   -0.076066
H       0.987831   -0.604720   -0.185460
H      -0.489842   -2.009267    1.370150
H      -1.389154   -0.473612    1.810417
H      -1.175187   -1.666296   -1.073097
H      -3.640073   -1.349156   -0.960243
H      -4.308373   -1.115842    1.454509
H      -3.800120    0.592300    1.409515
H      -6.192205   -0.575054   -0.150824
H      -6.095106    1.061752    0.524266
H      -4.257717    1.645194   -1.079792
H      -4.974648    0.414096   -2.148011
