13

C       0.148263   -1.175374   -0.004783
C       0.041195    0.024831    0.002738
C      -0.083703    1.424848    0.011525
C      -1.187132    2.265020    0.031244
N      -0.811012    3.570082    0.032512
C       0.517385    3.561773    0.013822
N       0.998105    2.281129    0.000623
C       1.373594    4.684691    0.007435
C       2.124551    5.625297    0.001609
H       0.234785   -2.233743   -0.011298
H      -2.224986    1.970060    0.044337
H       1.967163    2.007590   -0.014363
H       2.775850    6.464292   -0.003328
