20

C      -0.019655    1.519031    0.157674
C      -0.039396    0.005063    0.038712
C      -1.330465   -0.544899   -0.538859
C       1.260522   -0.689050   -0.286436
C       0.714161   -0.774149    1.122296
O       1.306793    0.008831    2.133930
C       0.193843   -2.112238    1.596834
N       0.152966   -2.231740    2.953125
O      -0.138155   -3.007684    0.837504
H       0.907701    1.884067    0.600248
H      -0.135383    1.969119   -0.834720
H      -0.849578    1.871749    0.780205
H      -1.477064   -0.149662   -1.550683
H      -1.321770   -1.633483   -0.586067
H      -2.190784   -0.231292    0.064033
H       1.222977   -1.608098   -0.860558
H       2.145479   -0.075773   -0.425188
H       2.213450   -0.297484    2.248886
H       0.321227   -1.423580    3.527613
H      -0.280604   -3.051937    3.342519
