21

C       0.114559    1.476905    0.350240
C      -0.054148    0.053068   -0.197034
C      -1.470840   -0.483990   -0.081800
C      -1.912552   -1.074142    1.243053
C      -1.663067   -1.977476    0.061046
O      -2.770793   -2.607431   -0.527623
C      -3.366714   -1.840341   -1.542153
O      -3.689030   -0.546997   -1.110437
C      -2.511393    0.230926   -0.931793
H       1.158307    1.798527    0.284157
H      -0.487709    2.199903   -0.209437
H      -0.189794    1.533410    1.400520
H       0.258693    0.024782   -1.249823
H       0.624089   -0.621197    0.339790
H      -1.205396   -1.080514    2.066194
H      -2.953090   -0.955827    1.524430
H      -0.783396   -2.616776    0.065188
H      -2.700773   -1.782765   -2.423335
H      -4.299943   -2.342813   -1.803673
H      -2.835229    1.170914   -0.475602
H      -2.071335    0.463518   -1.917148
