18

C       0.021044    1.563746    0.010406
C      -0.005249    0.033138    0.001590
C      -1.429914   -0.531502    0.012846
C      -1.433715   -2.062713    0.005217
N      -2.787824   -2.609389    0.014942
N      -3.478790   -2.859811    1.115473
N      -4.637562   -3.276312    0.701616
N      -4.647923   -3.274742   -0.644703
N      -3.495763   -2.857003   -1.075405
H       1.048111    1.939855    0.002321
H      -0.491897    1.973744   -0.866126
H      -0.474174    1.963114    0.901873
H       0.526417   -0.338753   -0.883951
H       0.544356   -0.349186    0.871639
H      -1.968315   -0.180777    0.901041
H      -1.985732   -0.171838   -0.860969
H      -0.948688   -2.458484   -0.889628
H      -0.932098   -2.467337    0.886915
