18

O      -0.100681    1.367719    0.023627
C       0.057427   -0.022849    0.012663
C       0.798015   -0.708632    1.193550
C       0.378763   -2.132480    0.799771
C      -1.155295   -2.051583    0.731070
C      -1.311613   -0.758696    0.020135
N      -1.196461   -2.029681   -0.763446
C       0.320936   -2.105099   -0.787810
C       0.749337   -0.702874   -1.200064
H       0.773325    1.770789    0.023064
H       1.880127   -0.532129    1.175954
H       0.394882   -0.410189    2.166009
H       0.852550   -2.976883    1.294345
H      -1.901970   -2.556209    1.334480
H      -2.242138   -0.212323   -0.062183
H       0.696166   -2.962288   -1.342896
H       0.312230   -0.408158   -2.157698
H       1.833264   -0.546101   -1.219569
