14

N      -0.005723    1.304377    0.256060
C       0.039795   -0.024227   -0.056092
O       1.070011   -0.618137   -0.311942
C      -1.262097   -0.672462   -0.071134
C      -2.306835   -1.277217   -0.105751
C      -3.534377   -2.013922   -0.126323
C      -3.745035   -3.052921   -1.184902
N      -3.529076   -3.462398    0.200711
H       0.866469    1.798911    0.348688
H      -0.859086    1.746404    0.549747
H      -4.405709   -1.490760    0.258006
H      -4.751436   -3.211850   -1.561140
H      -2.949265   -3.192773   -1.910059
H      -2.566523   -3.768433    0.325037
