15

C       0.190959    1.520367    0.164367
C      -0.095420    0.015406    0.009640
O      -1.475300   -0.245784   -0.062394
C       0.642194   -0.526096   -1.194502
N       1.971151   -0.637558   -1.152045
C       2.488704   -1.115568   -2.272945
N       1.801570   -1.451957   -3.374356
N       0.493497   -1.296197   -3.350383
N      -0.101422   -0.841318   -2.262406
H       1.261474    1.706569    0.286727
H      -0.170287    2.068068   -0.711673
H      -0.339846    1.888838    1.044963
H       0.307128   -0.506063    0.888597
H      -1.691895   -0.392706   -0.993859
H       3.565521   -1.253364   -2.324206
