19

C      -0.147059    1.490642   -0.107631
C       1.260643    0.959091   -0.066951
C       0.085296    0.013436    0.067531
C      -0.185330   -0.637060    1.364654
O      -1.527016   -0.654521    1.897568
C      -0.461464   -0.146893    2.713789
C       0.317479   -1.339614    3.352850
C      -0.249014   -2.662804    2.912866
C       0.593378   -1.868234    1.951448
H      -0.506839    2.047618    0.749996
H      -0.546339    1.828550   -1.056871
H       1.832717    0.931062   -0.987457
H       1.850289    1.156893    0.821409
H      -0.120519   -0.616427   -0.794744
H      -0.575368    0.852678    3.118276
H       1.010330   -1.228993    4.176097
H       0.246567   -3.530073    3.337790
H      -1.312895   -2.771457    2.745553
H       1.531125   -2.220965    1.543260
