19

C      -0.144741    1.524062   -0.069799
N       0.042881    0.073120   -0.053830
C       0.927514   -0.685972   -0.974735
C       2.379653   -0.364424   -0.558042
N       2.525428    0.893647    0.208596
C       2.224461   -0.368210    0.921939
C       0.717641   -0.691088    1.026701
C       0.637148   -1.892639    0.003460
O      -0.598264   -2.513494   -0.127674
H       0.401752    1.991113   -0.892370
H      -1.212889    1.752850   -0.181303
H       0.218826    1.986623    0.850675
H       0.663026   -0.714460   -2.032351
H       3.228109   -0.795221   -1.076653
H       3.520022    1.083917    0.313375
H       2.947107   -0.802078    1.603086
H       0.239528   -0.724784    2.006288
H       1.403939   -2.665864    0.081890
H      -1.229960   -1.781802   -0.192044
