15

N       0.058993   -1.150320   -0.255050
C       0.028202   -0.001901   -0.117527
C      -0.006229    1.428279    0.046143
C      -0.527826    2.302191   -1.141782
C       0.765514    3.171573   -1.081605
C       1.253630    2.365715    0.137862
O       0.794757    2.907055    1.387307
C      -0.329735    2.006322    1.443802
H      -0.638415    1.738190   -2.068438
H      -1.468831    2.814262   -0.929500
H       1.402440    3.050006   -1.961092
H       0.633529    4.235353   -0.877350
H       2.287435    2.016310    0.181317
H      -1.289177    2.528933    1.532666
H      -0.226484    1.282032    2.259522
