18

O      -0.087792    1.416555   -0.012442
C      -0.041731   -0.001026   -0.058703
C      -1.459809   -0.495652   -0.021503
C      -2.520858   -0.281804    1.100326
C      -3.228986   -1.145189    0.018575
C      -2.598941   -0.204273   -1.046818
C      -1.914765   -1.998653   -0.031880
C      -1.635087   -2.809519   -1.206475
N      -1.399125   -3.463847   -2.130684
H       0.811087    1.749743   -0.088235
H       0.445334   -0.363585   -0.977723
H       0.515350   -0.416551    0.797264
H      -2.322062   -0.757210    2.065054
H      -2.885461    0.739245    1.219058
H      -4.241176   -1.546630    0.040983
H      -2.968454    0.822015   -1.064583
H      -2.472476   -0.607397   -2.053713
H      -1.686980   -2.563801    0.876400
