16

C       0.000559    1.526672    0.019852
C      -0.004876    0.019848    0.000670
C       0.037974   -0.696772   -1.193108
C       0.031276   -2.095767   -1.169407
C      -0.019590   -2.722833    0.088199
N      -0.060930   -2.058214    1.237596
C      -0.053296   -0.723341    1.182765
C       0.074014   -2.864707   -2.365894
C       0.110006   -3.521464   -3.374597
H       0.902330    1.928016   -0.455238
H      -0.859083    1.935209   -0.522461
H      -0.036965    1.908262    1.043460
H       0.076716   -0.179254   -2.146484
H      -0.026270   -3.807895    0.145035
H      -0.087887   -0.206966    2.140354
H       0.141739   -4.100880   -4.263931
