15

O       0.010825    1.428597    0.216728
C      -0.186978    0.094548    0.575493
C      -1.197871   -0.567862   -0.340847
O      -1.684874    0.058160   -1.256905
C      -1.627541   -2.005463   -0.107410
C      -3.073767   -2.305871   -0.343051
O      -2.102634   -2.685255   -1.280305
C      -0.922337   -2.928386    0.839836
O      -0.138997   -2.590903    1.688975
H      -0.532480    1.572730   -0.573123
H       0.747848   -0.486456    0.534696
H      -0.537843    0.000985    1.614221
H      -3.546062   -3.112757    0.216688
H      -3.702445   -1.464306   -0.626157
H      -1.203631   -3.990639    0.673963
