17

C       0.061406    1.571665   -0.173817
C       0.009605    0.081962    0.067333
N       1.288206   -0.672056    0.064652
C       0.523338   -0.601175    1.306059
C       1.182045    0.128688    2.455753
O       2.179574   -0.680281    3.054657
C      -1.141041   -0.635836   -0.557714
O      -2.036744   -0.106530   -1.163601
H       1.001364    1.995965    0.179751
H      -0.029467    1.775923   -1.244210
H      -0.771300    2.073297    0.327193
H       1.173787   -1.578608   -0.387186
H      -0.004697   -1.504638    1.612712
H       1.593959    1.086850    2.115006
H       0.444136    0.336398    3.237242
H       2.839733   -0.853060    2.373684
H      -1.100322   -1.745617   -0.426630
