22

C      -0.030401    1.496405   -0.073070
C      -0.004737   -0.021556    0.019849
C      -1.234203   -0.637075   -0.633703
C       1.322324   -0.733907   -0.128094
C       0.654546   -0.680366    1.231250
C       1.282700    0.170018    2.325865
C       0.086572   -1.971567    1.785996
O       1.161343   -2.723085    2.347153
H       0.874653    1.963044    0.319078
H      -0.130891    1.806430   -1.119968
H      -0.885107    1.912930    0.473830
H      -1.336513   -0.259052   -1.657874
H      -1.186973   -1.725777   -0.698441
H      -2.152029   -0.370097   -0.095507
H       1.337727   -1.686257   -0.649235
H       2.217647   -0.137727   -0.276236
H       1.876544    0.995655    1.930008
H       0.518761    0.593666    2.989868
H       1.943447   -0.455314    2.931951
H      -0.666897   -1.739729    2.557372
H      -0.414046   -2.553940    1.002873
H       0.785521   -3.481351    2.803593
