19

O      -0.601988    0.817936    0.813522
C       0.078377    1.033932   -0.155074
C       1.312813    1.906486   -0.169367
C       1.228887    3.004784   -1.229163
O       2.495053    3.616606   -1.326240
C       2.534405    4.674761   -2.259177
C       3.959122    5.238893   -2.256090
C       4.113837    6.343929   -3.191876
C       4.212286    7.252667   -3.971925
H      -0.171179    0.576109   -1.141755
H       1.472614    2.326536    0.826099
H       2.171819    1.268674   -0.420669
H       0.932253    2.576499   -2.202585
H       0.460174    3.745355   -0.954046
H       2.270683    4.319167   -3.267747
H       1.814950    5.463490   -1.989168
H       4.204679    5.563285   -1.238002
H       4.656728    4.429673   -2.502282
H       4.314036    8.057500   -4.656905
