23

C       0.006788    1.592038    0.132533
C       0.038953    0.064207   -0.017366
C       0.808431   -0.587907    1.139776
C      -1.383055   -0.494636   -0.111866
C      -2.277679   -0.222093   -1.324344
C      -2.031705   -1.337781   -2.357394
C      -0.991249   -2.292920   -1.777923
C      -1.655484   -2.006819   -0.401709
C      -2.957424   -1.561165   -1.186146
H       1.019392    2.007547    0.168593
H      -0.519575    2.065770   -0.702395
H      -0.504569    1.884024    1.057973
H       0.566066   -0.165931   -0.951840
H       0.876233   -1.673869    1.017406
H       1.828469   -0.195425    1.208454
H       0.313151   -0.391560    2.098629
H      -1.936069   -0.218922    0.796714
H      -2.731825    0.713600   -1.626150
H      -2.304483   -1.194853   -3.395409
H      -1.187237   -3.320325   -2.098388
H       0.075547   -2.074324   -1.900216
H      -1.607675   -2.740520    0.400443
H      -3.998579   -1.840702   -1.121803
