13

C      -0.061564   -1.192121    0.406395
C      -0.021525   -0.027615    0.118779
C       0.013546    1.392231   -0.234950
C       1.363186    1.960213   -0.231686
C       2.467382    2.432180   -0.227665
C       3.814970    2.995947   -0.223615
C       3.889361    4.305315    0.438673
N       3.960760    5.335319    0.955171
H      -0.095346   -2.222128    0.662686
H      -0.439958    1.533881   -1.225409
H      -0.616910    1.959207    0.463560
H       4.511943    2.315786    0.282720
H       4.189206    3.109611   -1.249162
