12

C      -0.024641    1.502839   -0.058548
C      -0.025941   -0.002518    0.041376
O      -0.045955   -0.613477    1.086219
C      -0.001295   -0.768072   -1.235504
C       0.004046   -2.109580   -1.476562
N       0.029697   -2.268454   -2.838495
N       0.040064   -1.149405   -3.416811
O       0.021410   -0.135126   -2.411652
H       0.864485    1.846453   -0.598136
H      -0.891418    1.845818   -0.633698
H      -0.045001    1.931265    0.943369
H      -0.008627   -2.938383   -0.791021
