14

C       0.162452    0.929714    0.322111
O      -0.438557   -0.040860   -0.523140
C       0.452831   -0.630728   -1.393305
C       1.440241   -1.664379   -0.960471
O       0.927573   -2.376290    0.191589
C      -0.143763   -2.848872   -0.561334
O      -0.965370   -3.634929   -0.230836
C       0.241493   -2.077769   -1.804508
H       0.929698    0.475337    0.961600
H       0.616300    1.744479   -0.260248
H      -0.634458    1.337895    0.945932
H       0.800140    0.006036   -2.212197
H       2.504264   -1.716724   -1.144239
H       0.133759   -2.407930   -2.827253
