19

C      -0.029116    1.524823    0.073954
C       0.122368    0.042357   -0.013836
O      -0.803237   -0.814437    0.664085
C       0.596252   -0.965100    0.955415
C       1.226427   -1.813407   -0.141067
O       0.820154   -3.155450   -0.160201
C       0.659324   -0.795632   -1.210793
C      -0.369874   -1.329577   -2.188085
O       1.769174   -0.186025   -1.852788
H       0.880030    2.015294   -0.286881
H      -0.871845    1.871798   -0.535266
H      -0.209506    1.834231    1.106748
H       0.894152   -0.866994    1.993345
H       2.319017   -1.701453   -0.130383
H       1.329958   -3.615793   -0.834096
H      -1.192857   -1.801524   -1.649812
H      -0.777216   -0.520995   -2.808671
H       0.085821   -2.068901   -2.854660
H       1.429796    0.436069   -2.505640
