14

N      -0.139662    1.379496   -0.020433
C      -0.031460    0.029342    0.266728
O       0.811990   -0.445710    0.990268
N      -1.030312   -0.734898   -0.347898
C      -1.139021   -2.098669   -0.127127
C      -2.061140   -2.894989    0.467296
N      -1.687556   -4.223187    0.310165
C      -0.574242   -4.159281   -0.344024
O      -0.174430   -2.909718   -0.666287
H       0.671851    1.905404    0.266336
H      -0.510335    1.647197   -0.919651
H      -1.852513   -0.261441   -0.687732
H      -2.956597   -2.609451    0.995462
H       0.071628   -4.967578   -0.648673
