19

C      -0.593523    1.364877    0.030169
C       0.078004   -0.001965   -0.058368
C       1.353381   -0.071851   -0.920516
C       2.045220   -1.339879   -0.398771
O       1.501824   -1.587261    0.916841
C       0.606593   -0.580282    1.257461
O       1.278986    0.479421    1.970400
C       1.573227    0.251221    3.265885
O       2.200844    1.020366    3.929801
H       0.097185    2.116347    0.419213
H      -0.935068    1.687167   -0.958176
H      -1.467424    1.336040    0.689287
H      -0.641008   -0.738959   -0.438288
H       1.139430   -0.122614   -1.990216
H       1.971420    0.812009   -0.737251
H       1.826220   -2.218287   -1.016139
H       3.131429   -1.234700   -0.321622
H      -0.158052   -1.010388    1.913227
H       1.163902   -0.706225    3.639814
