19

C      -0.037075    1.502660    0.124347
C       1.408782    2.036537   -0.049144
C       2.177917    1.151344   -1.064384
C       1.517997    1.276613   -2.428945
C       0.537890    0.380049   -2.570759
C       0.515785   -0.535543   -1.380943
C       0.011344   -0.025991    0.024986
O       1.267710   -0.466004    0.625322
C       1.870959   -0.339058   -0.682071
H      -0.436978    1.808103    1.096365
H      -0.707830    1.903967   -0.643077
H       1.407706    3.084535   -0.364480
H       1.922958    1.981097    0.913705
H       3.243339    1.397337   -1.063627
H       1.759506    2.070415   -3.127580
H      -0.142591    0.307190   -3.410881
H       0.217799   -1.568684   -1.565915
H      -0.850476   -0.531065    0.467792
H       2.702535   -1.031351   -0.834828
