22

C      -0.051944    1.530508   -0.052439
C       1.396464    2.051904    0.044138
C       2.245604    1.586950    1.257474
C       3.404453    0.600658    0.966348
N       3.041682   -0.819221    1.023281
C       2.327167   -1.307330    0.111415
O       1.906285   -0.639181   -1.001340
C       0.492074   -0.716750   -1.222323
C      -0.274430    0.010120   -0.118666
H      -0.621040    1.910988    0.805808
H      -0.510754    1.987885   -0.939652
H       1.932187    1.819008   -0.880137
H       1.321755    3.145467    0.078475
H       2.705907    2.473540    1.707412
H       1.609832    1.157665    2.041775
H       3.857363    0.852879   -0.001469
H       4.175805    0.746730    1.728482
H       2.004214   -2.352285    0.157622
H       0.324955   -0.262204   -2.203039
H       0.182531   -1.771256   -1.277364
H      -0.008656   -0.451436    0.840654
H      -1.344744   -0.184703   -0.261830
