17

C      -0.064502    1.525198    0.027411
C       0.177424    0.028565   -0.084853
C       1.407212   -0.449638   -0.886126
O       1.958755   -1.143200    0.257593
C       0.857409   -0.738364    1.106812
C       1.404481    0.102931    2.269759
O       0.764586    0.904261    2.893653
C       0.113607   -1.860410    1.657241
C      -0.497065   -2.780437    2.132895
H       0.851322    2.069983    0.274717
H      -0.437184    1.909856   -0.927936
H      -0.802102    1.750741    0.801153
H      -0.740089   -0.481697   -0.382610
H       1.203095   -1.136927   -1.713986
H       2.076429    0.346872   -1.234055
H       2.478204   -0.107154    2.468518
H      -1.038014   -3.595471    2.547407
