13

O       0.090493    1.400032   -0.004356
C      -0.006228    0.009968   -0.002291
C      -1.378300   -0.674954   -0.072965
C      -1.674578   -0.739494   -1.573040
O      -0.615483   -0.057626   -2.263437
C       0.293868   -0.729530   -1.335929
C      -0.804065   -1.781912   -0.964010
H      -0.276824    1.679031   -0.854775
H       0.592847   -0.380631    0.823682
H      -2.145642   -0.747651    0.686301
H      -2.658511   -0.770457   -2.020202
H       1.293059   -0.876672   -1.738723
H      -0.837579   -2.859589   -0.912110
