12

N       0.069395    1.394600    0.158470
C      -0.010698    0.022914    0.050646
C      -1.137732   -0.793799    0.019902
N      -0.590205   -2.052600   -0.022870
N       0.737318   -2.018787   -0.021576
N       1.099380   -0.760439    0.021036
C      -2.509446   -0.510133    0.025476
C      -3.686487   -0.247535    0.023126
H       0.963426    1.760167   -0.137913
H      -0.709356    1.898596   -0.239857
H      -1.073051   -2.936549   -0.057258
H      -4.723051   -0.017102    0.034598
