16

C      -0.020816    1.539593    0.019341
C      -0.002926    0.000426    0.009465
N       0.794729   -0.491234   -1.151177
C       1.749271   -1.175056   -0.656633
N       1.784884   -1.275176    0.727441
C       0.731046   -0.539241    1.263668
N       0.407124   -0.301481    2.464081
C      -1.358297   -0.542485   -0.064851
C      -2.474781   -0.980208   -0.125053
H       1.003436    1.922110    0.032008
H      -0.525453    1.907032   -0.876019
H      -0.543740    1.889334    0.911758
H       2.516211   -1.667893   -1.246079
H       2.490685   -1.750437    1.264636
H       1.038702   -0.744427    3.133026
H      -3.462684   -1.366592   -0.174953
