18

C      -0.086832    1.514901   -0.253149
O       1.248438    2.031449   -0.151461
C       2.157739    0.991870    0.072263
C       1.460292   -0.287016   -0.384773
C       0.008391    0.003845    0.022702
C      -0.259008   -0.356689    1.491685
N       0.563428    0.206208    2.540927
C       1.715064    0.710284    2.461903
O       2.580300    0.961050    1.439079
H      -0.726212    2.036512    0.467168
H      -0.460961    1.721292   -1.263494
H       3.082971    1.219752   -0.460731
H       1.558086   -0.374421   -1.471332
H       1.882728   -1.181797    0.076570
H      -0.709086   -0.548105   -0.591749
H      -1.299503   -0.099341    1.729526
H      -0.199255   -1.449732    1.596608
H       2.206918    1.023994    3.383415
