16

C       0.032710    1.520275    0.049554
C       0.063740    0.008596   -0.085124
C      -1.113686   -0.627925    0.479588
N      -2.079638   -1.097563    0.905556
C       0.699330   -0.751712   -1.195438
C       1.941755   -0.062678   -1.754172
C       2.424299   -0.044891   -0.299975
N       3.406192    0.336598    0.379661
N       1.293160   -0.812532    0.208037
H       0.890775    1.993427   -0.427872
H      -0.880704    1.912079   -0.406194
H       0.035896    1.798214    1.106893
H       0.222269   -1.624416   -1.625129
H       2.542838   -0.734695   -2.372198
H       1.821692    0.890777   -2.274486
H       4.096533    0.812022   -0.203906
