19

C      -0.015661    1.312630   -0.137105
C       1.499459    1.507540    0.073575
C       1.434317    0.130620    0.766783
O       0.019849    0.009468    0.487537
C       2.222031   -1.014299    0.129528
O       3.617249   -0.810861    0.364137
C       4.180301   -1.944482    1.024423
C       3.025993   -2.881706    1.243342
C       1.918647   -2.359978    0.729016
H      -0.662378    2.007618    0.412502
H      -0.360077    1.257253   -1.176592
H       2.101233    1.526491   -0.836811
H       1.787595    2.343797    0.710904
H       1.633817    0.144983    1.846330
H       2.023259   -0.999937   -0.955767
H       4.969902   -2.389628    0.397870
H       4.655690   -1.628011    1.965585
H       3.126086   -3.835594    1.745688
H       0.924992   -2.786805    0.723528
