14

N      -0.020949    0.939923    1.210201
C       0.030260    0.115763    0.229047
N       1.254476   -0.343179   -0.287816
N       1.630117   -1.171147   -1.266399
C       0.860696   -1.822561   -2.062771
C      -0.611317   -1.912268   -2.206353
O      -1.063057   -2.635387   -3.080210
C      -1.532574   -1.161239   -1.333083
C      -1.251685   -0.324562   -0.327104
H       0.908237    1.203067    1.546089
H       2.061435    0.037413    0.186166
H       1.385880   -2.440518   -2.787026
H      -2.574175   -1.345919   -1.579083
H      -2.072534    0.140567    0.208334
