17

O       0.080910    1.450224   -0.130578
C       0.070818    0.035516   -0.052806
C      -1.355542   -0.521079    0.015694
C      -1.402995   -2.051849    0.005129
O      -0.724042   -2.500869    1.204626
C      -0.285467   -3.777818    1.220124
O       0.268145   -4.250902    2.165078
C      -2.768125   -2.569409   -0.040512
C      -3.892321   -2.990684   -0.079909
H      -0.176952    1.797095    0.729291
H       0.562131   -0.316722   -0.967683
H       0.660857   -0.330887    0.797408
H      -1.858033   -0.168909    0.923828
H      -1.928915   -0.150300   -0.839227
H      -0.846390   -2.425060   -0.866660
H      -0.486539   -4.317746    0.275527
H      -4.885422   -3.367058   -0.113521
