18

C      -0.079186    0.274615    0.444651
N       0.111034   -0.657850   -0.648369
C       1.188281   -0.594289   -1.296744
O       1.491707   -1.382781   -2.347316
C       0.485396   -2.304709   -2.783937
C       0.507564   -3.616170   -1.972450
O      -0.525186   -4.446427   -2.423847
C       1.845028   -4.315112   -2.099316
O       1.924402   -5.446379   -2.517976
H       0.771224    0.957016    0.599684
H      -0.975076    0.877860    0.261002
H      -0.252255   -0.278496    1.374394
H       2.016345    0.098105   -1.105953
H      -0.506209   -1.858645   -2.688354
H       0.703671   -2.509900   -3.834491
H       0.368690   -3.349857   -0.911825
H      -0.092328   -5.271816   -2.696495
H       2.739111   -3.738682   -1.795994
