21

O      -0.092196    1.340221   -0.423325
C      -0.032854    0.052270    0.178365
C      -1.407405   -0.555437    0.124521
C      -1.872344   -1.262124   -1.127591
C      -1.597685   -2.047930    0.118324
C      -0.542625   -3.125947    0.418072
C      -1.418307   -3.572381    1.625838
C      -2.603497   -2.761451    1.023835
O      -3.341696   -1.905684    1.865461
H       0.766695    1.758821   -0.312401
H       0.683616   -0.597385   -0.350302
H       0.303654    0.123513    1.225823
H      -2.162219    0.002125    0.670320
H      -2.904767   -1.134092   -1.438163
H      -1.164468   -1.346869   -1.947168
H      -0.486729   -3.886913   -0.366493
H       0.472311   -2.792950    0.646506
H      -1.561023   -4.644056    1.784370
H      -1.088343   -3.107140    2.558263
H      -3.274269   -3.409666    0.439541
H      -4.027554   -2.421367    2.300160
