17

C      -0.081894    1.490968   -0.009212
N       1.209827    0.773133    0.044859
C      -0.041663    0.011359    0.016235
C      -0.396531   -0.889982    1.159058
C      -1.614022   -1.732306    0.800374
C      -0.232840   -2.315708    0.696003
N      -0.261219   -2.301956   -0.823659
C      -1.626163   -1.693843   -0.740065
C      -0.470035   -0.847516   -1.132541
H      -0.332365    2.046695    0.890325
H      -0.373151    1.980193   -0.935806
H       1.650649    0.767763   -0.872038
H      -0.197248   -0.624320    2.188219
H      -2.435357   -1.956708    1.465068
H       0.275320   -3.111246    1.222594
H      -2.432589   -2.005358   -1.393461
H      -0.291231   -0.561064   -2.163355
