11

C      -0.071856    1.420595    0.044922
N      -0.011247   -0.023677   -0.012104
C       0.365103   -0.829510   -1.025889
N       0.276728   -2.097912   -0.669289
C      -0.172331   -2.007492    0.611695
N      -0.362945   -0.775675    1.058507
H       0.251014    1.823603   -0.916621
H      -1.094406    1.746815    0.249843
H       0.585173    1.794748    0.833877
H       0.688465   -0.451614   -1.984497
H      -0.364376   -2.869906    1.232462
