25

C      -0.014304    1.539666   -0.110902
C      -0.026678    0.018919    0.068862
C      -1.432370   -0.578793    0.068725
C      -2.125742   -0.613100   -1.336603
C      -2.135544   -2.145388   -1.286775
C      -1.460476   -2.115782    0.094273
C      -2.847457   -2.689985   -0.071152
C      -4.090018   -2.050654    0.521166
C      -2.884546   -4.210350   -0.020415
H       1.007369    1.932073   -0.112290
H      -0.483713    1.834260   -1.055808
H      -0.561371    2.037241    0.697736
H       0.566059   -0.455558   -0.725034
H       0.468651   -0.241831    1.013931
H      -2.020958   -0.098239    0.860640
H      -3.095878   -0.115431   -1.437185
H      -1.463368   -0.228596   -2.117171
H      -1.918736   -2.788636   -2.133017
H      -0.644431   -2.729013    0.464661
H      -4.075032   -0.960112    0.473483
H      -4.987224   -2.390882   -0.009546
H      -4.205288   -2.333418    1.574313
H      -2.969377   -4.567626    1.012508
H      -3.743991   -4.601310   -0.577577
H      -1.978890   -4.648384   -0.452103
