20

C       0.011475    1.533480    0.071620
C       0.037560    0.016075    0.024778
C       0.683427   -0.545784   -1.245097
C       0.945239   -2.029642   -1.138394
N       0.905778   -2.787839   -2.150338
O       1.323835   -2.482389    0.095854
C       0.768954   -1.829620    1.255658
C       1.593861   -2.256157    2.448157
O       0.795355   -0.443837    1.146956
H       1.028298    1.933575    0.013052
H      -0.567432    1.930669   -0.767293
H      -0.442331    1.879542    1.003931
H      -0.990085   -0.375479    0.114769
H       0.076901   -0.360776   -2.133293
H       1.650299   -0.045736   -1.385833
H       1.148105   -3.743092   -1.876813
H      -0.276535   -2.174967    1.341498
H       2.619303   -1.897794    2.330500
H       1.169205   -1.832982    3.361268
H       1.602227   -3.345347    2.525661
