15

O      -0.386352    0.364686    0.704359
C      -0.128940    1.399031    0.183782
O      -1.001953    2.269703   -0.432402
C       0.090724    3.200336   -0.769168
C       1.101369    2.279463   -0.058033
C       1.600593    3.027566    1.202104
C       0.537248    4.110430    1.480417
C      -0.019282    4.462152    0.099433
O      -0.419266    5.530288   -0.276421
H       0.136512    3.385504   -1.840806
H       1.889770    1.808033   -0.643546
H       1.751678    2.343502    2.039915
H       2.564046    3.496640    0.980685
H      -0.284924    3.709437    2.086549
H       0.916158    4.998961    1.986636
