19

C       0.111918    1.362953   -0.000125
O       0.003707   -0.049641    0.005914
C      -1.326571   -0.569359    0.014748
C      -1.148473   -2.100040    0.015759
C      -2.048875   -0.149281    1.234067
C      -2.617310    0.173235    2.242478
C      -2.083119   -0.144519   -1.178726
C      -2.686732    0.181436   -2.168143
C      -3.422585    0.577201   -3.359950
H       1.180999    1.585644   -0.013053
H      -0.360372    1.799979   -0.889307
H      -0.339162    1.806742    0.896822
H      -0.577258   -2.392828    0.899208
H      -2.120993   -2.595049    0.029303
H      -0.602364   -2.392824   -0.883301
H      -3.126264    0.462783    3.128672
H      -4.129556   -0.202579   -3.663453
H      -3.993183    1.496435   -3.189012
H      -2.744970    0.755823   -4.201871
