12

C      -0.021958   -1.226587   -0.042758
C      -0.007102   -0.025838   -0.007377
C      -0.033907    1.419825   -0.007067
C       0.065986    2.133878    1.380128
O       1.495878    1.744887    1.445183
C       1.343838    2.157862    0.028683
C       0.608548    3.387600    0.635326
O       0.604278    4.570827    0.652287
H      -0.023540   -2.288431   -0.063131
H      -0.776135    1.827373   -0.701644
H      -0.541328    1.997843    2.271305
H       2.201817    2.049330   -0.629819
