19

C       0.025395    1.620249   -0.073232
C       1.589686    1.497545   -0.037179
C       2.159179    1.767793    1.325300
C       1.708655    1.208279    2.449568
C       0.627580    0.155416    2.544370
C       0.411810   -0.640051    1.255112
O       1.694732   -0.963114    0.641200
C       1.418355   -0.044355   -0.411839
C      -0.070540    0.088163   -0.044846
H      -0.433783    2.188829    0.739262
H      -0.335708    2.016184   -1.027235
H       2.108266    2.079730   -0.800968
H       2.968222    2.490395    1.389206
H       2.160280    1.497988    3.395400
H       0.912849   -0.555939    3.330133
H      -0.327901    0.588823    2.877463
H      -0.150195   -1.555273    1.469529
H       1.820447   -0.357166   -1.377881
H      -0.877342   -0.419663   -0.574199
