19

N       0.979064   -0.140801    0.279661
C      -0.167377    0.342709    0.012396
N      -1.308716   -0.455278    0.052424
C      -1.121901   -1.877303    0.388292
C      -2.421057   -2.562852    0.791198
C      -3.514691   -2.263958   -0.232245
C      -3.768018   -0.756244   -0.258022
C      -2.524571    0.120201   -0.326824
O      -2.601912    1.284650   -0.665088
H       1.685674    0.589208    0.209649
H      -0.401020    1.369949   -0.264917
H      -0.677712   -2.382864   -0.479113
H      -0.374850   -1.923625    1.183028
H      -2.231906   -3.637527    0.875534
H      -2.737981   -2.214120    1.782329
H      -3.196392   -2.611814   -1.223300
H      -4.440931   -2.795855    0.006594
H      -4.406544   -0.447890   -1.089540
H      -4.294656   -0.452916    0.657021
