16

C      -0.270183    1.465538   -0.023743
N       0.040588    0.040611    0.056181
C       1.365233   -0.453102   -0.306883
C       2.430506    0.457162   -0.652863
N       3.269292    1.196412   -0.949229
C       0.877925   -0.477705    1.135387
C       1.514089    0.401899    2.198444
C       0.434853   -1.768671    1.637773
N       0.106079   -2.793943    2.057219
H       0.574542    2.135060    0.177158
H      -0.638512    1.670337   -1.032167
H      -1.074319    1.679083    0.684647
H       1.370672   -1.377859   -0.877565
H       1.970162    1.293916    1.768745
H       0.763397    0.703565    2.934331
H       2.293329   -0.158657    2.721100
