12

O      -0.025039   -0.047303    0.003427
C      -0.006691    1.158841    0.009673
N      -1.136967    2.023625    0.029546
C      -0.685857    3.312418    0.030803
C       0.674134    3.340739    0.012592
N       1.099152    2.011211   -0.000752
C       0.966232    4.717146    0.015978
N      -0.140195    5.445828    0.035188
O      -1.230211    4.515841    0.044648
H      -2.079684    1.675095    0.040649
H       2.035806    1.649314   -0.014503
H       1.913582    5.235819    0.005986
