12

O       0.075254    1.316846    0.190490
C       0.069129   -0.008646    0.030053
N       0.091153   -0.655457   -1.118897
C       0.073052   -1.976669   -0.768021
C       0.039996   -2.134791    0.602763
N       0.038024   -0.824573    1.100817
C       0.011715   -3.310147    1.444058
O       0.012813   -4.453045    1.036153
H       0.098850    1.702055   -0.695606
H       0.084415   -2.763366   -1.506094
H       0.017599   -0.537207    2.065392
H      -0.012090   -3.090351    2.538298
