16

C       0.050819    1.371697    0.183574
N      -0.171845   -0.026854   -0.131731
C       0.545341   -0.607838   -1.158586
N       0.706811   -1.941148   -1.195480
N       1.386030   -2.170447   -2.327958
C       1.675949   -1.040379   -3.015508
C       2.416479   -1.090526   -4.267261
O       2.812843   -2.123212   -4.768625
C       1.143397    0.012359   -2.278418
H       1.100103    1.612037    0.416622
H      -0.262344    2.001284   -0.656131
H      -0.566848    1.643182    1.042332
H      -0.256845   -0.637327    0.667778
H       1.642882   -3.106278   -2.596514
H       2.598114   -0.104077   -4.741029
H       1.184788    1.059946   -2.525799
