21

C      -0.172048    1.517929   -0.055606
C       0.011290    0.003393   -0.097813
C       1.284486   -0.468010   -0.860032
C       2.012093   -0.651477    0.512780
C       0.608938   -0.607136    1.203798
C       2.853802   -1.812417    0.713279
C       3.526000   -2.799771    0.883269
C       4.393168   -3.962205    1.066231
O       5.689043   -3.635519    1.553514
H       0.741048    2.025090    0.277600
H      -0.425946    1.912063   -1.045710
H      -0.975620    1.798523    0.634018
H      -0.917341   -0.466467   -0.433467
H       1.140189   -1.427915   -1.360855
H       1.737432    0.234678   -1.564504
H       2.577548    0.253303    0.759721
H       0.533062   -0.014010    2.118864
H       0.235996   -1.614197    1.402828
H       3.962059   -4.644334    1.807917
H       4.454364   -4.524123    0.119846
H       6.031440   -2.927578    0.998047
