13

O       0.039562    0.087326   -0.125052
C       0.006447    1.279570   -0.096715
C      -1.075894    2.305894    0.099589
C      -0.075256    3.143012    0.855143
C       1.081017    2.381999    0.096574
C       0.767352    3.345482   -1.064443
C       0.778034    2.843257   -2.435672
N       0.791866    2.441650   -3.518951
N      -0.590187    3.623318   -0.437769
H      -2.141348    2.198121    0.243048
H      -0.156075    3.647232    1.806763
H       2.087503    2.141556    0.424310
H       1.331068    4.279730   -1.010680
