18

O      -0.187586    0.400287   -0.757551
C       0.179148    1.091852    0.166374
C       1.416640    1.896122    0.176642
C       1.886905    2.642167    1.419900
C       2.491974    3.947613    0.814464
N       2.777919    3.649299   -0.602947
C       3.678857    2.435119   -0.685261
C       2.457516    1.552921   -0.905361
C       1.651062    2.796888   -1.048667
H      -0.436891    1.183763    1.089650
H       1.051515    2.848004    2.097178
H       2.628941    2.073743    1.989431
H       1.762292    4.763005    0.851256
H       3.401564    4.282816    1.320145
H       4.313588    2.499706   -1.572634
H       4.305204    2.260122    0.196241
H       2.376309    0.625739   -1.457880
H       0.878149    3.109269   -1.738079
