15

N      -0.169497   -1.157897   -0.195925
C      -0.099013   -0.007076   -0.120553
C      -0.012483    1.449980   -0.019052
C      -0.627307    2.021330    1.296309
C       0.245095    3.248427    1.645849
C       1.541410    2.961445    0.908001
C       1.409154    1.979338    0.009529
C       2.729268    3.709105    1.136697
N       3.678455    4.337437    1.349489
H      -0.528495    1.863832   -0.898057
H      -1.684904    2.262796    1.181358
H      -0.539095    1.267537    2.082071
H      -0.192643    4.186261    1.282336
H       0.394615    3.365458    2.722424
H       2.182826    1.618882   -0.655612
