21

C       0.236022    1.527170    0.179974
C      -0.001091    0.020182    0.005379
C       0.462022   -0.751205    1.249648
O      -1.393883   -0.227517   -0.227946
C       0.721507   -0.495246   -1.245136
C       0.426958   -1.962125   -1.697870
C       0.260068   -1.423625   -3.124995
O       0.256351   -1.932578   -4.208238
C       0.229366    0.029455   -2.632921
H       1.299146    1.749323    0.317857
H      -0.123438    2.077946   -0.693208
H      -0.297215    1.900938    1.062041
H      -0.069196   -0.397828    2.141285
H       0.263239   -1.820222    1.136939
H       1.533524   -0.613525    1.427194
H      -1.884987    0.083838    0.538980
H       1.795563   -0.331273   -1.122850
H       1.192789   -2.726831   -1.549301
H      -0.528648   -2.320961   -1.302690
H      -0.798748    0.401459   -2.580875
H       0.848360    0.744805   -3.179243
