17

C      -0.062460    1.601565   -0.008246
C       0.027980    0.095074   -0.055114
C      -1.079517   -0.622780    0.660485
O      -2.076719   -0.092978    1.080617
C       0.579045   -0.707414   -1.189173
C       1.726771    0.001245   -1.903571
C       2.400304    0.088851   -0.511156
N       1.286230   -0.691610    0.143749
H       0.528487    2.093804   -0.781388
H      -1.108664    1.890385   -0.132915
H       0.263005    1.975877    0.968020
H      -0.897983   -1.713423    0.774919
H       0.073337   -1.596991   -1.555581
H       2.260619   -0.662100   -2.586105
H       1.489390    0.928752   -2.431488
H       3.325970   -0.483851   -0.434269
H       2.561620    1.081517   -0.083191
