14

C      -0.015003    1.544044    0.040423
C      -0.014166    0.006745   -0.027219
C       0.745942   -0.506457   -1.231587
N       2.019196   -0.697418   -1.280888
O       2.631057   -0.375742   -0.069239
C       0.021059   -0.781498   -2.427794
C      -0.660603   -0.988985   -3.398326
H       1.005734    1.925410    0.122580
H      -0.473067    1.976892   -0.854003
H      -0.581409    1.886463    0.911468
H       0.449788   -0.402003    0.874166
H      -1.040651   -0.365895   -0.080094
H       3.553706   -0.589643   -0.245367
H      -1.240524   -1.178971   -4.267522
