22

C       0.061804    1.581911   -0.050978
C       0.025909    0.051636   -0.013735
C      -1.398046   -0.512629    0.019530
C      -1.440968   -2.042736    0.059891
C      -2.881586   -2.588824    0.026487
O      -3.559819   -2.157945   -1.124240
C      -2.897117   -4.126221    0.042278
N      -2.471822   -4.732293    1.177071
O      -3.269820   -4.742479   -0.943601
H       1.089321    1.958101   -0.077638
H      -0.457843    1.966987   -0.935214
H      -0.427390    2.010946    0.830726
H       0.552449   -0.348698   -0.890216
H       0.582796   -0.307136    0.862738
H      -1.929426   -0.111558    0.894725
H      -1.955584   -0.172491   -0.859932
H      -0.900842   -2.454900   -0.802213
H      -0.927261   -2.407975    0.959764
H      -3.417999   -2.226487    0.919628
H      -3.707482   -2.971669   -1.637424
H      -2.219395   -4.210986    1.997907
H      -2.479678   -5.738012    1.222690
