18

C       0.032170    1.539931   -0.199735
C       1.324397    0.790769    0.003800
C       2.071458    0.873386    1.344614
N       1.202548    0.908288    2.534619
C       0.179665    0.198204    2.386762
O      -0.951482    0.129567    3.159416
C      -1.692350   -0.456911    2.029522
C      -0.365404   -0.608273    1.240919
C       0.007929    0.033121   -0.073561
H      -0.345373    2.136468    0.624006
H      -0.165958    1.959164   -1.179667
H       1.985644    0.713950   -0.854278
H       2.775518    0.031678    1.417576
H       2.681555    1.783135    1.359516
H      -2.205208   -1.373703    2.326388
H      -2.399017    0.272359    1.625082
H      -0.015984   -1.645718    1.265715
H      -0.197998   -0.536585   -0.974014
