19

C      -0.435570    1.535596    0.344859
C      -0.125300    0.049950    0.232752
C       0.284914   -0.501000   -1.140929
N       1.586017    0.132047   -1.474386
C       1.546695   -1.064332   -0.600748
C       1.231398   -0.559943    0.813896
C       2.231801    0.377815    1.467790
O       0.984250   -1.704237    1.618080
H       0.336103    2.132145   -0.147917
H      -1.395986    1.766711   -0.129712
H      -0.502853    1.854631    1.390986
H      -0.934540   -0.557921    0.648555
H      -0.361423   -0.876171   -1.925456
H       1.849024   -0.186513   -2.406127
H       2.078194   -1.974742   -0.849419
H       2.507609    1.184487    0.785738
H       1.813684    0.825911    2.378089
H       3.133978   -0.176377    1.745751
H       0.699005   -1.397372    2.485529
