21

C      -0.156585    1.520528   -0.003588
C       0.025511    0.005671   -0.042377
C       0.900384   -0.559235   -1.219657
C       2.421873   -0.481309   -0.757771
C       1.876874   -1.451593    0.319361
C       1.994894   -2.203436    1.656511
O       0.694220   -1.644496    2.041514
C       0.925394   -0.559476    1.089089
C       0.969234   -2.042475   -0.788482
H       0.808062    2.039563    0.023675
H      -0.698863    1.876464   -0.885789
H      -0.722312    1.826492    0.882856
H      -0.955047   -0.480890   -0.069620
H       0.621083   -0.263023   -2.232044
H       3.075565   -0.925393   -1.512003
H       2.828649    0.475187   -0.418370
H       1.979715   -3.296810    1.632335
H       2.787692   -1.849262    2.328858
H       1.424800    0.260475    1.627455
H       0.041587   -2.534691   -0.486882
H       1.534087   -2.672451   -1.480902
