23

C       0.465943    1.662650    0.431962
C       0.015153    0.211537    0.221425
C       0.702513   -0.427276   -0.968586
C       2.071516   -1.095467   -0.910799
C       2.494067   -1.632985    0.415292
C       1.702826   -2.627133    0.825518
C       0.646116   -2.987342   -0.205189
C      -0.777382   -3.159716    0.348015
C       0.830626   -1.903864   -1.277141
H       1.541783    1.712953    0.630238
H       0.264719    2.274406   -0.454739
H      -0.054609    2.121795    1.278345
H       0.213098   -0.363929    1.129745
H      -1.071306    0.186198    0.066219
H       0.572290    0.160390   -1.877126
H       2.823575   -0.810486   -1.639345
H       3.329272   -1.225608    0.974875
H       1.776985   -3.139949    1.779067
H       0.925929   -3.951781   -0.658238
H      -1.137522   -2.252646    0.839142
H      -1.477558   -3.407217   -0.456387
H      -0.812141   -3.974518    1.079530
H       0.653236   -2.196362   -2.306437
