17

O      -0.037104    1.437683   -0.028991
C       0.037414    0.025854    0.009214
C       0.624761   -0.568062    1.328871
C      -0.602836   -1.300056    1.906181
C      -1.647981   -0.296527    2.426909
C      -2.202217    0.242288    1.092278
O      -3.080084    1.039087    0.922240
C      -1.403673   -0.551667    0.040050
O      -1.236421   -1.804872    0.707161
H       0.853887    1.789469   -0.114786
H       0.570283   -0.365028   -0.866257
H       1.430587   -1.276729    1.125157
H       1.006144    0.222490    1.980259
H      -0.385623   -2.134331    2.571937
H      -2.444920   -0.799601    2.982312
H      -1.255623    0.516018    3.042959
H      -1.898360   -0.672812   -0.920723
