16

C       0.112894    1.520937   -0.326142
C      -0.016155    0.057867    0.010401
N       1.187969   -0.765284   -0.100998
C       0.597042   -0.571755    1.231059
C       1.367400    0.175329    2.244530
N       2.385948    0.958972    1.990448
O       2.749169    1.441325    3.256788
C       1.906128    0.882774    4.122429
N       1.030745    0.096497    3.585871
H       1.061962    1.920543    0.036278
H       0.073335    1.661587   -1.411402
H      -0.707390    2.093462    0.119758
H      -0.957900   -0.400661   -0.291462
H       0.973027   -1.698107   -0.441841
H       0.036501   -1.387452    1.679681
H       2.033230    1.131489    5.165978
