18

C       0.072210    1.196408   -0.304021
O      -0.053899   -0.119479    0.223366
C      -1.322232   -0.667548    0.075085
C      -2.358235    0.005028    0.840334
N      -3.166207    0.567855    1.447130
C      -1.798548   -1.276255   -1.232546
C      -0.600679   -1.863204   -1.990651
C      -0.269660   -2.759587   -0.755144
C      -1.473067   -2.161435   -0.017137
H       1.118803    1.480091   -0.181147
H      -0.193244    1.226698   -1.368834
H      -0.562113    1.906728    0.241253
H      -2.759216   -1.006583   -1.653906
H      -0.915429   -2.449975   -2.855370
H       0.167391   -1.153191   -2.305811
H      -0.406753   -3.821691   -0.965064
H       0.700651   -2.606146   -0.280122
H      -2.138917   -2.686265    0.656663
