17

C      -0.236723    1.383072   -0.219784
C      -0.239183   -0.122987   -0.048814
C       0.869536   -0.944892   -0.577914
N       0.725150   -0.756210    0.880850
C      -1.602961   -0.747287    0.023879
N      -2.049881   -1.536721   -0.847329
O      -2.396895   -0.298962    1.083764
C      -2.000265   -0.525980    2.379093
O      -2.626255   -0.091798    3.294325
H       0.790796    1.757100   -0.265325
H      -0.743739    1.669612   -1.146654
H      -0.749515    1.878510    0.610201
H       0.665230   -1.948550   -0.932981
H       1.679298   -0.428001   -1.085100
H       1.384352   -0.055780    1.213909
H      -3.001675   -1.828298   -0.613901
H      -1.088425   -1.136923    2.442051
