21

C      -0.067832    1.552015   -0.038204
C       0.007045    0.023458    0.002884
C       0.726918   -0.509410    1.246202
C       0.790881   -2.047419    1.287013
C       1.521363   -2.580315    2.491499
C       2.998924   -2.332326    2.646811
N       0.816261   -3.226281    3.340747
O       1.588275   -3.657332    4.436397
H       0.933060    1.998030   -0.034877
H      -0.584998    1.902505   -0.936863
H      -0.606585    1.945574    0.830853
H      -1.006961   -0.395744   -0.034351
H       0.519046   -0.343617   -0.896767
H       1.742201   -0.092570    1.282655
H       0.216438   -0.151820    2.149790
H      -0.222215   -2.460636    1.287204
H       1.292406   -2.407729    0.377324
H       3.189225   -1.609591    3.448220
H       3.508607   -3.256011    2.934163
H       3.437190   -1.947124    1.723695
H       0.940549   -4.143172    4.957102
