18

O      -0.025619    1.298459   -0.082291
C       0.032290   -0.092742   -0.021377
C      -0.442302   -0.790768    1.245316
C      -1.279437   -0.809072    0.004970
N      -2.539887   -0.035828   -0.170221
C      -3.124710   -1.216842   -0.866653
C      -2.328579   -1.500109   -2.115550
C      -1.823811   -1.990782   -0.779726
O      -1.574374   -3.312754   -0.475383
H      -0.915127    1.510423   -0.403756
H       0.873359   -0.523544   -0.561388
H       0.033129   -1.722969    1.534216
H      -0.756307   -0.153563    2.066665
H      -2.992682    0.078810    0.733584
H      -4.160006   -1.502597   -0.734667
H      -2.754721   -2.281399   -2.738525
H      -1.834830   -0.690644   -2.647651
H      -0.956202   -3.664918   -1.125094
