19

C      -0.087434    1.547964    0.046783
C      -0.023517    0.023688    0.042448
C       0.752891   -0.564891   -1.155762
C       2.083833   -0.441797   -0.379585
O       2.543053   -1.740104   -0.810449
C       1.113726   -2.063765   -0.847842
C       0.829903   -2.128792    0.675498
O       1.673143   -3.025093    1.345018
C       1.118234   -0.619121    0.882220
H       0.890507    2.001170   -0.147392
H      -0.778595    1.912653   -0.720998
H      -0.438263    1.920134    1.014894
H      -1.020843   -0.389987    0.231266
H       0.620284   -0.261980   -2.193828
H       2.826956    0.350193   -0.432169
H       0.874979   -2.911168   -1.488364
H      -0.200091   -2.392721    0.927750
H       2.536719   -2.921502    0.919182
H       1.371883   -0.285415    1.886780
