16

N      -0.059928   -1.038735   -0.063200
C      -0.001539    0.115629   -0.018372
C       0.062724    1.550717    0.038161
C       0.570365    2.148415    1.340874
C       1.441005    2.172487    0.085337
C       1.299495    3.713590    0.042779
O       0.177584    4.244846   -0.700482
C      -0.617792    4.380119    0.511781
C       0.478667    3.692260    1.346537
H      -0.704430    2.052350   -0.541398
H       0.660121    1.523236    2.219713
H       2.325282    1.599384   -0.161989
H       2.220876    4.280313   -0.104181
H      -0.771260    5.436174    0.761740
H      -1.590254    3.881397    0.432452
H       0.820510    4.168017    2.263432
