18

O      -0.838492    1.401955    0.531508
C       0.223185    0.983457    0.151224
C       1.488937    1.830016    0.017922
C       1.462781    2.998185    1.022611
C       2.414646    4.059249    0.723052
C       3.188914    4.942543    0.466441
N       2.635788    0.957669    0.227894
C       3.095616    0.187460   -0.931125
C       3.889355    1.336006   -0.421372
H       0.355445   -0.078067   -0.151479
H       1.467407    2.250369   -1.008329
H       0.442838    3.397261    1.036231
H       1.655572    2.589442    2.021392
H       3.870260    5.728377    0.252774
H       3.400319   -0.833642   -0.723802
H       2.573947    0.324285   -1.877272
H       3.897633    2.246772   -1.013870
H       4.786065    1.167258    0.166677
