16

O      -0.031416   -0.063627    0.273243
C       0.022633    1.144050    0.328221
C       1.205835    1.948383   -0.037299
C       1.116855    3.280611    0.049439
C       2.157178    4.305960   -0.287228
N       3.558760    3.991340   -0.415961
C       4.130431    2.879085   -0.262582
O       3.678099    1.622110   -0.033057
C       2.408694    1.199147   -0.539194
H      -0.848754    1.746360    0.669160
H       0.168113    3.702450    0.386016
H       1.834033    4.812348   -1.212649
H       2.093113    5.101982    0.469904
H       5.220938    2.853142   -0.281861
H       2.316868    0.150650   -0.252242
H       2.441668    1.243290   -1.636145
