18

O      -0.102148    1.546336   -0.324856
C       0.003890    0.263230    0.255547
C      -1.305130   -0.490170    0.147289
O      -1.644886   -0.655560   -1.309442
C      -1.358822   -1.986230   -1.170086
N      -0.840313   -2.879205   -1.891868
C      -0.376108   -3.878931   -0.878583
C      -0.204827   -3.088082    0.477491
C      -1.326838   -2.046859    0.316308
H      -0.372853    1.410864   -1.241034
H       0.811233   -0.325334   -0.205991
H       0.254217    0.406608    1.312357
H      -2.119184    0.045940    0.638578
H      -1.101934   -4.696370   -0.777458
H       0.564758   -4.316922   -1.220488
H      -0.305540   -3.720857    1.362086
H       0.785376   -2.623262    0.500573
H      -2.266091   -2.366119    0.774696
