18

C       0.042934    1.521925   -0.044927
C       0.008448    0.066364   -0.028925
C      -0.018218   -1.139653   -0.059586
C      -0.033451   -2.587392   -0.018300
C       0.356760   -3.248086    1.358080
O       0.846744   -2.453061    2.397674
C      -1.067745   -3.794561    1.403431
C      -2.082288   -2.743151    1.204106
N      -1.397685   -3.263330    0.009480
H       0.976092    1.899817    0.386705
H      -0.030289    1.906418   -1.067940
H      -0.786201    1.947144    0.530775
H       0.536552   -3.004970   -0.851457
H       1.083912   -4.049610    1.208299
H       0.447669   -1.578335    2.315500
H      -1.334121   -4.804640    1.697474
H      -3.122650   -3.048757    1.253738
H      -1.899470   -1.717620    1.513843
