23

C      -0.216406    1.552900   -0.298529
C      -0.040092    0.053689   -0.015517
C       0.573848   -0.693450   -1.219046
C       1.986634   -0.345746   -1.628627
C       2.974138    0.250464   -0.955753
C       2.968790    0.794950    0.455183
C       2.173235   -0.014835    1.468515
C       1.131670    0.639014    2.347556
C       0.711130   -0.320233    1.260522
H       0.726881    2.058990   -0.516661
H      -0.863013    1.688824   -1.172174
H      -0.691266    2.061545    0.545577
H      -1.056259   -0.347677    0.103516
H       0.529027   -1.775704   -1.020265
H      -0.074329   -0.542664   -2.093870
H       2.220414   -0.655714   -2.647093
H       3.909670    0.396269   -1.493826
H       4.005696    0.869434    0.804418
H       2.608389    1.833057    0.439417
H       2.747025   -0.817418    1.924110
H       1.036605    0.325178    3.381649
H       0.954687    1.698184    2.191556
H       0.418630   -1.304520    1.620348
