22

C      -0.794636    1.894483   -0.157580
C      -0.554873    0.398164   -0.391600
C      -1.795881   -0.442794   -0.196808
C      -2.688404   -0.603695    1.065492
N      -3.394080   -1.532975    0.064009
C      -3.160476   -0.384945   -0.933590
C      -1.955677   -1.988804   -0.287131
C      -1.835184   -2.834448   -1.542765
O      -2.611897   -4.012221   -1.393660
H       0.124132    2.468929   -0.306706
H      -1.549282    2.287946   -0.846744
H      -1.145288    2.084449    0.862264
H      -0.171605    0.238907   -1.408007
H       0.226449    0.036255    0.289657
H      -2.270722   -1.128855    1.929523
H      -3.306322    0.244171    1.373291
H      -3.805198    0.477765   -0.744188
H      -3.214804   -0.676011   -1.983050
H      -1.520272   -2.550505    0.547887
H      -2.115900   -2.286103   -2.453272
H      -0.794584   -3.153968   -1.670773
H      -3.455779   -3.730152   -1.018293
