16

N       0.031610    1.239991    0.700468
C      -0.044934    0.357918   -0.343111
O       0.858312    0.246817   -1.154424
C      -1.339733   -0.407226   -0.380733
C      -1.999929   -0.925547   -1.606041
C      -1.032049   -1.403933   -2.686551
C      -0.429352   -2.321015   -1.595036
N      -1.456033   -1.880609   -0.569566
H       0.904022    1.726584    0.830329
H      -0.623341    1.225480    1.462403
H      -2.044653   -0.100277    0.389363
H      -3.068826   -0.780577   -1.738793
H      -1.544118   -1.959323   -3.474779
H      -0.376592   -0.651977   -3.123533
H      -0.577592   -3.386624   -1.779245
H       0.604277   -2.130540   -1.309309
