18

C      -0.126003    1.444039    0.038865
C      -0.025803   -0.006454    0.016231
C       0.068942   -1.210888   -0.002973
C       0.165793   -2.615667   -0.024956
C       1.263260   -3.460424   -0.080251
C       0.781512   -4.792040   -0.077914
C      -0.598458   -4.748717   -0.021413
C      -1.612019   -5.844267    0.005856
N      -0.956526   -3.426808    0.010034
H       0.868762    1.902986    0.061819
H      -0.644791    1.828997   -0.847068
H      -0.670946    1.798145    0.921873
H       2.291405   -3.136507   -0.117767
H       1.374072   -5.693936   -0.113540
H      -2.223886   -5.819533    0.916414
H      -2.298230   -5.794596   -0.848970
H      -1.111098   -6.814297   -0.028925
H      -1.898160   -3.076080    0.052653
