19

C      -0.062117    1.500712    0.029118
C       0.075129    0.001661   -0.016354
N      -0.539656   -0.836086    1.042518
C       0.950670   -0.786000    0.895134
C       1.491266   -1.926703    0.099135
C       0.998391   -1.903839   -1.142407
C       0.099585   -0.732891   -1.352594
C      -1.080439   -0.739638   -2.255969
N       0.147636   -0.039490   -2.659213
H       0.724892    1.996753   -0.549261
H      -1.031881    1.829828   -0.365300
H       0.010711    1.862034    1.059765
H      -0.805119   -0.220729    1.812310
H       1.530562   -0.323666    1.687667
H       2.156737   -2.677511    0.506533
H       1.182279   -2.630229   -1.924596
H      -1.315520   -1.627721   -2.836293
H      -1.947413   -0.158825   -1.948815
H       0.035694    0.962948   -2.527611
