17

C      -0.068445    1.480535   -0.064384
C       1.360731    2.116401   -0.023628
C       2.193095    1.490375    1.128539
C       3.004749    0.143305    1.026167
C       2.454567   -0.356911    2.310750
C       1.306765    0.675555    2.132752
C       0.831835   -0.235842    0.999621
N       0.171856    0.026371   -0.040628
N       2.037085   -1.053139    1.067645
H      -0.660040    1.842853    0.788446
H      -0.602528    1.750664   -0.977203
H       1.850197    1.952173   -0.988597
H       1.285351    3.199377    0.122267
H       2.828296    2.227797    1.626192
H       3.961222   -0.034568    0.551410
H       2.902593   -0.849278    3.161932
H       0.676344    1.151271    2.877737
