20

C       0.036239    1.587662   -0.094285
C       0.028882    0.057693   -0.040628
C       0.714204   -0.581438   -1.253924
C       0.699059   -2.098930   -1.186643
O       1.361010   -2.601391   -2.361860
C       1.445593   -3.932590   -2.477032
N       0.988051   -4.760297   -1.632832
C       2.163359   -4.308956   -3.755728
O       2.353681   -5.455344   -4.066501
H       1.059597    1.977298   -0.125491
H      -0.484383    1.954556   -0.985570
H      -0.458080    2.018193    0.781715
H       0.525917   -0.279802    0.878141
H      -1.006098   -0.302362    0.024667
H       0.217222   -0.259422   -2.177344
H       1.753458   -0.236805   -1.321528
H       1.220066   -2.478050   -0.300206
H      -0.320141   -2.500661   -1.158079
H       1.190248   -5.704283   -1.970024
H       2.495658   -3.453088   -4.376214
