15

O      -0.053764   -0.077868    0.005023
C      -0.008830    1.132614    0.009790
C      -1.230376    2.093034    0.031619
C      -0.696552    3.559491    0.030681
C       0.787498    3.352753    0.008521
C       1.136052    2.026431   -0.002481
N       2.511307    2.004725   -0.022165
C       2.903348    3.312129   -0.021941
N       1.886092    4.161330   -0.003489
H      -1.858815    1.876504   -0.837413
H      -1.833801    1.868505    0.916209
H      -1.045479    4.124916   -0.839862
H      -1.020366    4.116883    0.915983
H       3.107774    1.193876   -0.034324
H       3.946979    3.592724   -0.035599
