16

C      -0.005453    1.558597    0.001326
C       0.069259    0.040127    0.029453
C       1.116382   -0.680233   -0.868999
C       1.346953   -1.686495    0.274079
O       2.692954   -2.068324    0.441982
C       0.718682   -0.661134    1.257973
H       0.980129    2.002609    0.181083
H      -0.362661    1.921909   -0.969009
H      -0.687810    1.938535    0.770143
H      -0.925594   -0.382037   -0.152419
H       0.802546   -1.063101   -1.842803
H       2.013434   -0.065574   -0.997185
H       0.696479   -2.566398    0.160672
H       2.742141   -2.686412    1.178144
H       1.508047   -0.038952    1.693027
H       0.067195   -1.028893    2.055436
