13

O       0.053626   -0.094060    0.003309
C      -0.027046    1.119169    0.007354
C       1.160115    1.967229    0.001251
C       2.135881    2.672647   -0.003721
C      -1.306997    1.830764    0.018586
C      -2.608950    1.348334    0.026613
C      -3.412267    2.496985    0.035497
N      -2.677890    3.617572    0.033562
N      -1.415955    3.190771    0.023300
H       3.015524    3.270415   -0.008174
H      -2.901583    0.311850    0.025787
H      -4.489482    2.567961    0.043357
H      -0.657961    3.855553    0.019793
