23

C      -0.221076    1.467320   -0.105475
C       0.035276   -0.031156    0.074770
C      -1.271911   -0.816166    0.034488
C       1.174184   -0.546643   -0.862562
C       2.179806   -0.417317    0.319102
C       0.973162   -0.322873    1.290712
C       3.172825   -1.532995    0.499687
C       3.518090   -2.098797    1.809523
O       2.657357   -2.804297    0.911165
H       0.709637    2.044520   -0.079772
H      -0.710058    1.668014   -1.065754
H      -0.871974    1.851932    0.688272
H      -1.789812   -0.672514   -0.921492
H      -1.093709   -1.888921    0.161593
H      -1.952886   -0.492172    0.830782
H       1.026651   -1.594185   -1.141010
H       1.378407    0.035202   -1.765802
H       2.731165    0.527715    0.265242
H       1.016892    0.434788    2.078073
H       0.758208   -1.297272    1.737656
H       3.925021   -1.607911   -0.289253
H       4.497465   -2.548152    1.968168
H       3.035119   -1.710330    2.705083
