23

C      -0.058446    1.433673   -0.065704
C      -0.159890   -0.058219   -0.331566
O       1.098052   -0.519975   -0.801116
C       1.106990   -1.888815   -1.071349
C       0.577741   -2.472437   -2.346416
C       0.853087   -1.521651   -3.519410
C       2.390336   -1.629179   -3.241382
C       3.234085   -0.367754   -3.097518
C       2.095298   -2.496762   -2.005722
H       0.718418    1.639758    0.676049
H       0.193403    1.972918   -0.983526
H      -1.010512    1.818971    0.311687
H      -0.434228   -0.597327    0.590420
H      -0.942451   -0.272873   -1.075595
H       0.904660   -2.501673   -0.189250
H      -0.133794   -3.290137   -2.356555
H       0.565512   -1.930007   -4.490080
H       0.420739   -0.521939   -3.415781
H       2.831436   -2.272609   -4.010266
H       2.813708    0.301102   -2.344584
H       4.258543   -0.617097   -2.797654
H       3.292445    0.170037   -4.051104
H       2.712109   -3.329970   -1.685462
