19

C      -0.133561    1.540839   -0.057966
C       0.009347    0.034586    0.030808
O       0.726872   -0.451562   -1.122374
C       1.346592   -1.660667   -0.764332
C       2.607990   -1.580004    0.071738
C       3.028719   -0.197590    0.546315
O       2.006373    0.260704    1.436688
C       0.824030   -0.505068    1.225593
C       1.273660   -1.882647    0.715961
H       0.843297    2.022780    0.012817
H      -0.605132    1.821902   -1.003359
H      -0.760113    1.907709    0.761260
H      -0.984983   -0.442438    0.051546
H       1.225661   -2.455105   -1.493103
H       3.360037   -2.351932   -0.044298
H       3.972782   -0.232788    1.100623
H       3.138505    0.501362   -0.293085
H       0.255601   -0.517692    2.158296
H       1.013232   -2.808717    1.210198
