17

C       0.118766    1.258150    0.294539
O      -0.005838   -0.069552   -0.206478
C      -1.264870   -0.564799   -0.134366
C      -2.243493   -0.911625    0.952077
O      -3.350120   -0.219961    0.383913
C      -2.650648   -0.279055   -0.888815
C      -2.700974   -1.778281   -1.287657
C      -1.769896   -1.985966   -0.093438
O      -1.039135   -3.094789    0.260739
H       1.173238    1.527219    0.211110
H      -0.483201    1.963457   -0.292929
H      -0.194564    1.313330    1.344433
H      -2.167213   -1.042271    2.023700
H      -2.913469    0.520882   -1.576931
H      -3.693946   -2.238669   -1.284712
H      -2.181638   -1.966726   -2.230623
H      -1.618215   -3.706671    0.729399
