21

C      -0.221988    1.606740    0.000309
C      -0.004452    0.085348    0.000619
C       0.749869   -0.368594   -1.263453
C       2.211967    0.066301   -1.280750
O       2.799513    0.328680   -2.311526
C       2.884663    0.101228    0.035040
C       2.223422   -0.139001    1.174461
C       0.746689   -0.441881    1.250349
C       0.146082    0.026209    2.584642
H       0.723103    2.155376    0.062581
H      -0.721597    1.913426   -0.924068
H      -0.851433    1.925453    0.835445
H      -0.994092   -0.388894   -0.008547
H       0.749035   -1.467451   -1.314574
H       0.273974   -0.007054   -2.179095
H       3.946586    0.326762    0.021567
H       2.764882   -0.125915    2.119539
H       0.652651   -1.540621    1.230078
H       0.280589    1.101158    2.736381
H      -0.926268   -0.189689    2.626931
H       0.624254   -0.488236    3.424520
