19

C      -0.080644    1.554210   -0.043953
C      -0.005827    0.064786   -0.001069
C       0.010209   -1.003429   -1.065691
C       1.288534   -1.638290   -0.528150
C       0.934456   -0.968248    0.820641
C      -0.377721   -1.672795    1.280128
C      -1.038972   -1.032412    0.067237
C       1.977600   -0.561043    1.796933
O       3.167541   -0.646270    1.609203
H       0.873177    1.999307   -0.349143
H      -0.840455    1.869950   -0.767718
H      -0.353765    1.980116    0.928298
H      -0.297325   -0.890028   -2.098219
H       1.382348   -2.729805   -0.527747
H       2.183987   -1.191342   -0.965067
H      -0.339937   -2.765335    1.358871
H      -0.757709   -1.248258    2.214495
H      -2.096719   -0.952954   -0.151728
H       1.580864   -0.135050    2.748676
