17

C      -0.131264    1.506915   -0.054635
C      -0.025122   -0.009911    0.087928
C       0.784858   -0.502129    1.258702
N       1.302394    0.397745    2.022149
O       2.063283   -0.018983    3.123130
C       2.236279   -1.328914    3.358280
C       1.725047   -2.312501    2.602674
C       0.926870   -1.967225    1.446479
N       0.353691   -2.751601    0.603981
H       0.852749    1.967502   -0.174650
H      -0.736489    1.753877   -0.931459
H      -0.597277    1.960060    0.824163
H      -1.016445   -0.472343    0.169406
H       0.406102   -0.465387   -0.811868
H       2.846009   -1.477237    4.242963
H       1.911021   -3.348473    2.860139
H       0.531057   -3.728261    0.849944
