16

C      -0.158631    1.477937    0.050556
C       0.144521    0.018344   -0.010241
O      -0.705241   -0.898863    0.690482
C       0.707787   -0.937337    0.960740
C       1.297129   -1.831374   -0.139092
O       0.849719   -3.142020   -0.200330
C       0.729104   -0.774017   -1.204857
C      -0.216508   -1.266402   -2.188277
N      -0.980295   -1.671258   -2.955873
H       0.706911    2.066865   -0.268160
H      -0.997885    1.723191   -0.608708
H      -0.426734    1.766088    1.069948
H       1.019487   -0.808639    1.990879
H       2.388477   -1.849962   -0.159713
H      -0.110313   -3.121447   -0.087666
H       1.547114   -0.242279   -1.697916
