21

C      -0.048810    1.476664   -0.175412
C       1.290348    0.776456    0.050406
C       2.082386    0.960407    1.292900
C       1.900045    0.373505    2.480576
C       0.805477   -0.593589    2.846641
C       0.520437   -1.714502    1.794147
C      -0.556507   -0.782764    1.158232
C      -0.617452   -0.035959    2.518261
C       0.007142   -0.020003   -0.028269
H      -0.444998    2.057995    0.649014
H      -0.245341    1.900066   -1.154810
H       1.910802    0.734075   -0.842209
H       2.914074    1.656719    1.195240
H       2.581342    0.644256    3.283980
H       0.949806   -0.942069    3.871772
H       1.351248   -2.023489    1.155878
H       0.078955   -2.596454    2.267378
H      -1.493932   -1.259664    0.856180
H      -1.379900   -0.482044    3.163639
H      -0.741837    1.048564    2.525615
H      -0.101606   -0.577705   -0.955954
