19

C      -0.444668    1.242421   -1.315703
C       0.295202   -0.013507   -0.915257
O       1.693825    0.021178   -1.260776
C       2.081726   -0.514779    0.019468
C       3.266883    0.201017    0.626223
C       0.645631   -0.260786    0.591413
N       0.555320    0.940930    1.408483
C      -0.002265   -1.426341    1.204686
N      -0.522297   -2.323790    1.717305
H      -0.010813    2.120097   -0.833779
H      -0.376294    1.365757   -2.400842
H      -1.505426    1.167823   -1.052201
H      -0.185872   -0.902277   -1.347065
H       2.277369   -1.593427   -0.058272
H       3.050448    1.261145    0.767930
H       3.539915   -0.247827    1.587575
H       4.124903    0.102805   -0.045765
H      -0.418953    1.170787    1.583257
H       0.981718    0.777657    2.316291
