18

C      -0.029924    1.359452   -0.157290
O      -0.029168   -0.039702    0.072592
C      -1.298962   -0.606689    0.078010
O      -1.920271   -0.559069   -1.221862
C      -1.988640   -1.918631   -1.586131
C      -2.436070   -2.781791   -0.373662
N      -1.621575   -3.922272   -0.930721
C      -0.743586   -2.704517   -1.091689
C      -1.188259   -2.107654    0.285861
H       1.008053    1.692878   -0.097344
H      -0.434607    1.599561   -1.147011
H      -0.620853    1.888009    0.605808
H      -1.956259   -0.074336    0.783277
H      -2.403017   -2.064147   -2.580399
H      -3.436584   -2.916456    0.039351
H      -1.265684   -4.486256   -0.154200
H       0.257662   -2.746699   -1.518619
H      -0.771216   -2.487244    1.218010
