15

C      -0.482255    1.423489    0.060148
C      -0.037502   -0.006297   -0.003992
N       0.080982   -0.578990   -1.151032
C       0.353719   -1.889096   -1.406891
N       0.044262   -2.959586   -0.744467
C      -0.367722   -2.948492    0.555918
C      -0.183322   -1.999958    1.515743
C       0.287101   -0.630928    1.336499
O       0.737946    0.057219    2.236280
H       0.302625    2.020876    0.535038
H      -0.701565    1.800226   -0.938316
H      -1.364820    1.518853    0.702765
H       0.801673   -2.047091   -2.387665
H      -0.802125   -3.895413    0.872073
H      -0.426060   -2.255746    2.543893
