13

O       0.044306    1.358758   -0.034484
C      -0.028011   -0.026534   -0.015224
C      -0.415651   -0.689614    1.264314
O      -0.757128    0.176184    2.317317
C      -1.397141   -0.735897    0.100221
C      -2.649883    0.056821    0.113110
O      -3.681878   -0.331706   -0.379969
H      -0.206200    1.659154    0.850998
H       0.701627   -0.486966   -0.673500
H       0.035008   -1.632512    1.565174
H       0.019929    0.279035    2.878239
H      -1.495900   -1.693915   -0.398622
H      -2.585992    1.050291    0.598085
