23

C       0.276611    0.887847   -0.721373
C       0.450808   -0.621052   -0.494353
C       1.343805   -1.240620   -1.579413
C       1.021934   -0.893983    0.892947
C       0.096171   -0.797506    2.140124
O      -0.598981   -2.027489    1.689164
C       0.850194   -2.301707    1.533757
C       1.061528   -1.705976    2.956441
C       2.405417   -1.252433    3.502449
H       1.239591    1.410582   -0.666142
H      -0.150927    1.088428   -1.709285
H      -0.387896    1.333543    0.025860
H      -0.534296   -1.096378   -0.540454
H       2.350928   -0.805949   -1.559488
H       1.445202   -2.322781   -1.448193
H       0.928217   -1.063496   -2.576863
H       2.012865   -0.441779    1.003468
H      -0.528455    0.030189    2.481355
H       1.132087   -3.282436    1.145971
H       0.502355   -2.284623    3.696566
H       2.994237   -0.670444    2.789572
H       2.261948   -0.635733    4.396297
H       3.005406   -2.119598    3.798933
