16

N      -0.076518    1.264299    0.060619
C      -0.108416    0.037383   -0.218022
O      -1.013961   -0.756980    0.423106
C      -0.955699   -2.110716    0.176990
C      -0.406016   -3.231672    1.133151
C      -0.972871   -4.023035   -0.092997
C      -2.192636   -3.038548   -0.047559
C      -0.295047   -2.942419   -0.945754
O       0.378322   -2.807555   -1.920712
H       0.632163    1.728047   -0.504538
H       0.506183   -0.501614   -0.944980
H       0.669644   -3.269411    1.311492
H      -0.985186   -3.350055    2.050665
H      -0.992523   -5.097157   -0.235746
H      -2.827621   -3.152329    0.832904
H      -2.770542   -2.899729   -0.962257
