13

O      -0.303441    1.368486   -0.043453
C      -0.086185    0.029626   -0.014112
C      -0.196584   -0.907667   -1.199664
C      -1.070990   -1.176851   -0.017015
O      -0.295630   -1.830737    1.013232
C       0.539425   -0.719460    1.153063
O       1.371838   -0.535511    1.972376
C      -2.537443   -1.140748    0.048426
O      -3.222409   -0.712801   -0.850034
H       0.033815    1.735593   -0.867578
H      -0.723602   -0.468925   -2.043418
H       0.593218   -1.612914   -1.438375
H      -2.958225   -1.513484    1.004116
