19

O      -0.016451    0.028142   -0.187998
C       0.027055    1.221844   -0.210319
O       1.041424    1.925681    0.319343
C       1.018201    3.358021    0.212637
C       1.365855    4.021212    1.579195
C       2.649193    4.766248    1.161875
C       2.220660    5.378128   -0.204915
C       2.185874    3.881615   -0.635652
C       3.394424    3.685068    0.326372
H      -0.755529    1.866121   -0.658284
H       0.043095    3.667106   -0.179688
H       0.577472    4.692198    1.931271
H       1.539087    3.257620    2.341237
H       3.154212    5.355473    1.926659
H       1.291232    5.955584   -0.246537
H       3.025249    5.927659   -0.697700
H       2.208948    3.570911   -1.680212
H       4.325601    4.057451   -0.105238
H       3.543827    2.696406    0.765662
