15

O      -0.047121    1.424810   -0.062933
C       0.014052    0.029940   -0.002477
C      -0.019168   -0.665069    1.415925
C      -1.500903   -0.157406    1.512807
C      -1.396567   -0.661544    0.014365
C      -2.395491   -0.652871   -1.001815
C      -3.236624   -0.662824   -1.861354
C      -0.625879   -1.846036    0.664306
O      -0.583379   -3.033182    0.617222
H       0.837919    1.773366    0.083444
H       0.732685   -0.378466   -0.721745
H       0.745619   -0.656106    2.187703
H      -2.178942   -0.704473    2.167449
H      -1.602450    0.921234    1.599616
H      -3.979706   -0.673133   -2.619925
