20

C      -0.183972    1.581080   -0.002874
C       0.012767    0.071979    0.022720
C       1.238225   -0.594976   -0.660658
C       2.156045   -0.156831    0.528798
C       3.217691   -1.232462    0.765994
C       2.358551   -2.509231    0.543943
C       1.011645   -1.858681    0.233013
C       0.804111   -0.620581    1.166274
H       0.731980    2.133937    0.222449
H      -0.533999    1.908364   -0.988524
H      -0.941852    1.884313    0.728431
H      -0.935934   -0.428341   -0.209722
H       1.498585   -0.588319   -1.722564
H       2.465586    0.884461    0.616946
H       4.049381   -1.153429    0.058122
H       3.641612   -1.177482    1.774113
H       2.721155   -3.125244   -0.285447
H       2.313270   -3.149320    1.431116
H       0.153991   -2.500872    0.020217
H       0.558998   -0.643736    2.231573
