16

C      -0.069434    1.371236   -0.104775
N      -0.258254   -0.034635    0.200287
C       0.449228   -0.629161    1.206761
N       1.196977    0.039817    1.995874
C       1.882269   -0.623768    3.096250
C       3.332517   -0.461612    2.993977
C       4.524901   -0.340392    2.916606
C       0.228184   -2.070645    1.291784
N       0.069081   -3.213458    1.365748
H       0.960779    1.589832   -0.411045
H      -0.754902    1.647845   -0.907583
H      -0.287449    1.975377    0.779461
H      -0.647000   -0.634936   -0.506959
H       1.542080   -0.161122    4.032896
H       1.645764   -1.696673    3.173908
H       5.579202   -0.233829    2.849427
