17

C      -0.122496    1.552758    0.104296
C       0.127228    0.076133   -0.006811
O      -0.722594   -0.781643    0.804541
C       0.686254   -0.799409    1.043404
C       1.415837   -1.957336    0.380851
C       1.169901   -1.711538   -1.107487
C       0.483636   -0.571383   -1.306159
C       1.609466   -2.621735   -2.095675
C       2.012442   -3.420915   -2.903112
H       0.735534    2.121689   -0.268735
H      -0.999660    1.842131   -0.484718
H      -0.305802    1.832165    1.144445
H       1.001973   -0.429077    2.015758
H       2.487289   -1.947518    0.613063
H       1.022369   -2.928698    0.699309
H       0.195605   -0.177498   -2.272709
H       2.357915   -4.117645   -3.626052
