18

C       0.260122    1.404979   -0.092644
C       0.146422   -0.045173   -0.047077
C       0.052281   -1.244626    0.012145
C      -0.061419   -2.704780    0.031622
C      -1.529783   -3.154176    0.029557
O       0.637372   -3.270205   -1.093209
C       0.624003   -3.229993    1.331237
N       1.868478   -3.724052    1.134252
O       0.067011   -3.160343    2.407556
H       1.225539    1.715530   -0.506639
H      -0.528073    1.849472   -0.709907
H       0.177045    1.832567    0.912367
H      -2.054237   -2.716729   -0.823830
H      -1.573591   -4.244084   -0.045480
H      -2.012089   -2.840197    0.955905
H       0.565337   -2.642775   -1.819274
H       2.208143   -3.843747    0.195335
H       2.356544   -4.124608    1.917454
