18

C      -0.170434    1.544405   -0.017221
C       0.018423    0.038091    0.023054
O       0.813553   -0.409250   -1.109462
C       1.906391   -1.159138   -0.560545
C       2.836256   -0.165628    0.145782
O       2.061907    0.225648    1.301918
C       0.832082   -0.508948    1.213013
C       1.276085   -1.866079    0.649211
H       0.779171    2.056345    0.151750
H      -0.571110    1.845986   -0.988838
H      -0.877702    1.859868    0.757593
H      -0.961244   -0.461081   -0.023557
H       2.358729   -1.762471   -1.347070
H       3.785733   -0.612057    0.469454
H       3.039790    0.706780   -0.483602
H       0.332805   -0.479152    2.181162
H       0.455273   -2.528730    0.369884
H       1.989394   -2.381741    1.294785
