21

O       0.459364    0.696559   -1.059709
C       0.057718   -0.219448   -0.033212
C       0.761394    0.136361    1.254235
C       0.281182    0.363313    2.479227
C      -1.129045    0.308840    3.005099
C      -2.243148   -0.013945    2.012697
C      -1.975813   -1.279026    1.147054
C      -1.463098   -0.348079    0.013630
C      -2.192435    0.835511    0.710903
H       0.236279    1.581685   -0.750553
H       0.458020   -1.184748   -0.375827
H       1.835823    0.239789    1.110379
H       1.011985    0.624844    3.244404
H      -1.156126   -0.425315    3.825104
H      -1.345765    1.274915    3.486605
H      -3.199263   -0.003172    2.543995
H      -1.276277   -2.021604    1.542668
H      -2.903013   -1.786525    0.868702
H      -1.801398   -0.584090   -0.998214
H      -3.186973    1.003769    0.290014
H      -1.673569    1.798524    0.762918
