17

C       0.242718    1.453573   -0.289451
C      -0.012906    0.022386    0.109750
O       1.121556   -0.842924    0.254247
C       0.332296   -0.574641    1.410602
C       0.995528    0.191682    2.547386
C       1.760536   -0.678428    3.429365
C       2.383382   -1.415214    4.159376
C       3.084535   -2.244215    4.979665
C       3.706098   -2.979175    5.708788
H       1.069913    1.897374    0.267815
H       0.490938    1.505043   -1.354531
H      -0.654961    2.059831   -0.126496
H      -0.844408   -0.444977   -0.422638
H      -0.262440   -1.424128    1.750314
H       1.650405    0.967025    2.137166
H       0.216952    0.705588    3.128718
H       4.253246   -3.626855    6.347554
