17

C       0.242338    1.416843    0.120450
C      -0.023574   -0.094959   -0.010783
C      -1.529590   -0.433240   -0.020077
C      -2.188350   -0.084162    1.231955
C      -2.711240    0.205262    2.275149
C       0.643444   -0.644445   -1.267514
O       0.025342   -1.108285   -2.201692
C       2.097476   -0.580070   -1.285129
C       3.300575   -0.537090   -1.284523
H       1.313650    1.628508    0.157261
H      -0.186926    1.961011   -0.727568
H      -0.219646    1.791715    1.036695
H       0.450140   -0.594833    0.844562
H      -2.008776    0.086823   -0.857687
H      -1.658683   -1.501507   -0.225052
H      -3.190023    0.453980    3.189604
H       4.363191   -0.505346   -1.300560
