21

C      -0.274639    1.496422   -0.320493
C       0.030403    0.031918   -0.057165
O       1.157174   -0.355449    0.158613
C      -1.162023   -0.917389   -0.075976
C      -0.798182   -2.386510    0.158617
C      -2.056406   -3.287421    0.298965
C      -2.144273   -4.020821   -1.065985
O      -1.191631   -3.398771   -1.917961
C      -0.117768   -3.000669   -1.078478
H       0.639303    2.086183   -0.241692
H      -0.704422    1.617600   -1.321422
H      -1.019767    1.869868    0.390653
H      -1.874927   -0.563817    0.682365
H      -1.684493   -0.804179   -1.036236
H      -0.148287   -2.454019    1.033359
H      -1.947343   -3.999608    1.120691
H      -2.953886   -2.695916    0.499576
H      -1.907446   -5.089709   -0.946340
H      -3.123585   -3.942316   -1.545619
H       0.510532   -2.301952   -1.633122
H       0.497677   -3.869056   -0.790759
