16

C       0.410007   -1.115312   -0.060366
C       0.233588    0.073997   -0.055396
C      -0.000957    1.501558   -0.056218
N      -0.298729    2.208311    1.297996
C       0.928860    2.796098    2.061229
C       2.404386    2.410245    1.839334
C       2.338824    2.033984    0.366836
C       1.177420    2.488616   -0.154063
C       0.441596    3.406760    0.822890
H       0.561722   -2.166635   -0.060376
H      -0.874095    1.745654   -0.670754
H       0.580331    3.115656    3.039273
H       3.038667    3.255076    2.143795
H       2.741940    1.535881    2.406736
H       2.760514    1.087896    0.042583
H      -0.030867    4.365735    0.643555
