21

C      -0.006770    1.649232    0.018057
C      -0.183326    0.130181   -0.079184
C       0.685566   -0.497024   -1.166870
C       2.240098   -0.599680   -0.991682
C       2.181133   -2.088955   -1.354622
C       1.316418   -2.824196   -0.364112
O       1.238367   -2.496532    0.997313
C       0.638242   -2.010942   -1.415647
O      -0.205836   -2.591456   -2.350673
H       1.030892    1.913945    0.250041
H      -0.268986    2.142225   -0.925197
H      -0.639614    2.074921    0.803172
H       0.047639   -0.340229    0.880862
H      -1.235908   -0.099496   -0.295387
H       0.479866   -0.008368   -2.126643
H       2.799396    0.004345   -1.707856
H       2.608949   -0.386965    0.016036
H       2.875360   -2.613528   -2.000474
H       1.246111   -3.893440   -0.572898
H       2.084901   -2.713586    1.402885
H      -0.967238   -2.956208   -1.886834
