25

C       0.057101    1.554782    0.058512
C       0.054637    0.028418    0.192310
C      -1.336034   -0.580314    0.029489
C      -2.032432   -0.556606   -1.377909
C      -2.233297   -2.080948   -1.291005
C      -3.473265   -2.806547   -1.737471
C      -3.610803   -2.872831   -3.265090
C      -0.887165   -2.741567   -1.174435
C      -1.494933   -2.107820    0.051670
H       1.064560    1.965652    0.177346
H      -0.315684    1.867751   -0.922999
H      -0.583574    2.019268    0.816754
H       0.738284   -0.405204   -0.548046
H       0.452707   -0.255498    1.175722
H      -2.007894   -0.128684    0.768449
H      -2.970075    0.005674   -1.376344
H      -1.420815   -0.205320   -2.216893
H      -3.464218   -3.823879   -1.325549
H      -4.358851   -2.312634   -1.314224
H      -3.643419   -1.869029   -3.702234
H      -2.762222   -3.400949   -3.712209
H      -4.527479   -3.393790   -3.558916
H      -0.903910   -3.827746   -1.177662
H      -0.007726   -2.316428   -1.652964
H      -1.715176   -2.698410    0.934751
