15

C       0.042784    1.488565   -0.063770
N      -0.123795    0.054697    0.087806
C       0.538324   -0.697225    1.018689
C       0.627583   -2.061205    1.005055
C       1.312706   -2.748899    2.063414
O       1.461266   -3.949114    2.161206
N       1.882571   -1.907014    3.113445
N       1.790963   -0.659696    3.096376
N       1.133988   -0.041843    2.060557
H       1.086952    1.786888   -0.233171
H      -0.547090    1.814617   -0.921379
H      -0.341187    2.027465    0.810644
H      -0.405830   -0.456812   -0.732480
H       0.183645   -2.640182    0.204990
H       1.110559    0.958596    2.161564
