15

O      -0.144883    1.485607   -0.069822
C      -0.018276    0.092312   -0.067394
C      -1.314496   -0.708288   -0.104092
C      -0.729596   -1.753277   -0.953630
N      -1.793951   -0.839333   -1.532232
C      -0.739004   -0.223576   -2.325215
N      -0.695750    0.212399   -3.500682
C       0.356146   -0.633002   -1.386218
O       1.664944   -0.718717   -1.770640
H       0.732966    1.871160   -0.161326
H       0.616728   -0.274488    0.751693
H      -2.081275   -0.779984    0.654743
H      -0.790374   -2.829989   -1.000838
H      -1.627472    0.247533   -3.919470
H       1.683698   -0.715444   -2.737248
