16

C       0.045364    1.524554    0.064417
C      -0.096650    0.012460   -0.072770
N       0.845836   -0.509154   -1.056159
C       0.763622   -1.928754   -1.263477
C       1.417297   -2.337322   -2.561565
O       1.763087   -1.571160   -3.425018
C       1.576161   -3.795768   -2.738376
N       1.695335   -4.938913   -2.864627
H       1.066122    1.791861    0.350994
H      -0.183809    2.028360   -0.881566
H      -0.643796    1.909849    0.821103
H       0.119783   -0.468348    0.890240
H      -1.144620   -0.245317   -0.317502
H       0.759615   -0.028629   -1.945848
H       1.241999   -2.484080   -0.442532
H      -0.271550   -2.334795   -1.316692
