13

N      -0.006115    1.335231    0.011457
C       0.108588   -0.007401    0.001504
O       1.133045   -0.651968   -0.011883
N      -1.152601   -0.684235    0.011108
C      -1.269659   -2.080390    0.007828
C      -2.575707   -2.350208    0.017835
O      -3.303835   -1.172296    0.027272
C      -2.425772   -0.126147    0.022832
O      -2.750255    1.036593    0.028629
H       0.843943    1.870609   -0.001035
H      -0.918861    1.773342    0.016429
H      -0.394531   -2.704109   -0.001317
H      -3.141551   -3.264282    0.019989
