16

C      -0.024102    1.506818   -0.014951
C       0.028456    0.000168    0.015133
N       0.096591   -0.613660   -1.175576
C       0.145945   -1.948310   -1.178457
C       0.132446   -2.704521   -0.025287
F       0.172417   -4.050006   -0.078265
C       0.064193   -2.093960    1.230824
N       0.102253   -2.854168    2.380453
C       0.008663   -0.695764    1.222938
H       0.888083    1.910584   -0.466331
H      -0.861623    1.845180   -0.632625
H      -0.132364    1.931211    0.986217
H       0.195413   -2.452372   -2.140756
H      -0.134289   -3.827328    2.263748
H      -0.286624   -2.434580    3.210071
H      -0.046065   -0.157347    2.164025
