21

C      -0.226944    1.534788   -0.134402
C       0.020924    0.022771    0.003022
C       0.851665   -0.264122    1.258771
C      -1.314955   -0.737508    0.066277
N       0.757967   -0.436048   -1.196370
C       1.976491   -1.028076   -1.294543
C       2.210971   -1.258599   -2.635149
C       1.060999   -0.764720   -3.277743
N       0.185606   -0.268863   -2.407391
H       0.720742    2.081054   -0.166387
H      -0.775926    1.744733   -1.053879
H      -0.807780    1.900062    0.717902
H       0.296297    0.079150    2.135468
H       1.042947   -1.334146    1.383222
H       1.808833    0.265586    1.242047
H      -1.885927   -0.573216   -0.849088
H      -1.143559   -1.812605    0.177347
H      -1.904908   -0.391556    0.920373
H       2.580163   -1.240760   -0.429250
H       3.083397   -1.714975   -3.073708
H       0.831306   -0.747872   -4.333358
