14

N      -0.027006    1.185618   -0.647970
C      -0.034392    0.058575   -0.063205
N       1.151005   -0.491891    0.488321
N       1.590472   -1.620137    1.113676
N       0.852542   -2.471423    1.668154
C      -0.535644   -2.443669    1.725137
C      -1.468784   -1.742345    1.050675
C      -1.321281   -0.711972    0.032141
N      -2.254032   -0.365041   -0.771030
H       0.893911    1.629317   -0.634097
H       1.971075    0.039354    0.226519
H      -0.892193   -3.198649    2.420199
H      -2.502490   -2.006621    1.263003
H      -3.088906   -0.932988   -0.602480
