17

O       0.396504    0.930569   -0.030332
C      -0.459995   -0.109995    0.382915
C      -1.832023   -0.004325   -0.290970
N      -1.638927   -0.014826   -1.732061
C      -2.320629   -0.802301   -2.427944
O      -2.130521   -0.851822   -3.774449
C      -2.959171   -1.752907   -4.486997
C      -4.344143   -1.272417   -4.617681
N      -5.433889   -0.901549   -4.710207
H       0.312362    0.973046   -0.991620
H      -0.029441   -1.102316    0.166161
H      -0.573934   -0.027463    1.469112
H      -2.499034   -0.807311    0.063109
H      -2.277868    0.959207   -0.016110
H      -3.089834   -1.490017   -2.048294
H      -2.516678   -1.850418   -5.481062
H      -2.970007   -2.747403   -4.022222
