18

O       0.042583    1.413753   -0.091008
C       0.007664    0.020224   -0.048897
C       0.387752   -0.751762    1.249216
C      -0.762276   -1.752373    0.924099
C      -1.678271   -2.250764    2.033724
N      -2.577692   -1.237001    2.573245
C      -2.787119   -0.191255    1.901907
O      -2.288825    0.195372    0.693333
C      -1.380731   -0.677942   -0.001688
H      -0.705703    1.722064    0.435589
H       0.586799   -0.348186   -0.901277
H       1.401491   -1.148262    1.328873
H       0.166722   -0.157297    2.141044
H      -0.389542   -2.587573    0.324724
H      -2.296724   -3.080653    1.665841
H      -1.090562   -2.657965    2.864923
H      -3.456587    0.584085    2.270688
H      -1.868043   -0.974140   -0.933434
