22

C      -0.574826    1.315177    0.031186
C       0.138394   -0.023755    0.224727
N       0.726082   -0.470831   -1.035873
C       1.926385   -0.823106   -1.060965
C       2.868107   -1.315840   -2.133919
C       3.909964   -1.366574   -0.984055
C       4.375469   -2.751558   -0.569474
C       5.038708   -0.353538   -1.067349
O       2.867949   -0.884597   -0.047049
H       0.136949    2.097987   -0.249368
H      -1.322008    1.239703   -0.764055
H      -1.075993    1.623766    0.954339
H       0.881026    0.054514    1.029766
H      -0.595246   -0.779230    0.535619
H       2.600622   -2.279566   -2.571800
H       3.073478   -0.598980   -2.931311
H       5.077847   -3.154676   -1.306534
H       4.882083   -2.712255    0.399784
H       3.528356   -3.437942   -0.486573
H       4.655197    0.635396   -1.333050
H       5.555688   -0.274790   -0.106011
H       5.769038   -0.657104   -1.824700
