23

C       0.046533    1.602040    0.116056
C       0.000279    0.073856    0.020623
C      -1.416985   -0.452671   -0.222079
C      -2.044850   -0.003422   -1.560211
C      -3.345915   -0.614626   -1.802752
C      -4.416619   -1.133099   -1.976378
C       1.119475   -0.488656   -0.919574
C       2.004520   -0.762178    0.325581
C       0.748689   -0.593699    1.221510
H       1.056722    1.951326    0.354132
H      -0.246604    2.079939   -0.824770
H      -0.624007    1.966173    0.903206
H      -1.399371   -1.548501   -0.204175
H      -2.073449   -0.141400    0.600579
H      -2.152568    1.087493   -1.579476
H      -1.365064   -0.256599   -2.384650
H      -5.363431   -1.583891   -2.141344
H       0.809976   -1.414713   -1.414295
H       1.516956    0.190767   -1.678888
H       2.517457   -1.725483    0.367035
H       2.745701    0.023863    0.491396
H       0.852783    0.006479    2.129915
H       0.303667   -1.555590    1.493346
