25

C      -0.462734    1.414363    2.223153
C      -0.241810   -0.100877    2.203500
C       0.956535   -0.526611    1.341917
O       2.146893    0.132998    1.772828
C       1.135557   -2.050696    1.265162
C      -0.032385   -2.838886    0.679851
C      -0.389300   -2.465739   -0.765401
C       2.518528   -2.572980    0.961103
C       1.939556   -2.732834    2.347486
H      -0.691129    1.790251    1.219627
H      -1.297340    1.682848    2.877858
H       0.431428    1.937201    2.572047
H      -0.085547   -0.475273    3.225987
H      -1.146608   -0.597895    1.837068
H       0.804819   -0.149599    0.322384
H       2.233226   -0.009522    2.721722
H       0.227983   -3.903647    0.715497
H      -0.919692   -2.731090    1.316177
H       0.483078   -2.555311   -1.421151
H      -1.171489   -3.125454   -1.153667
H      -0.760125   -1.438890   -0.845165
H       2.603525   -3.455677    0.335578
H       3.310711   -1.844599    0.840682
H       2.377353   -2.136770    3.142038
H       1.622163   -3.718645    2.670929
