19

C      -0.240289    1.497046   -0.082401
C       0.047979    0.017540    0.015781
C      -1.093118   -0.969684    0.324470
O      -0.317666   -1.608980    1.376281
C       0.770018   -0.683207    1.205313
C       1.915900   -1.173443    0.265476
C       1.665617   -2.513106   -0.443782
O       0.891758   -1.862566   -1.491268
C       1.153529   -0.560364   -0.938884
H       0.684674    2.084031   -0.114347
H      -0.805184    1.725234   -0.994326
H      -0.827621    1.846222    0.773423
H      -1.993836   -0.496589    0.735521
H      -1.361932   -1.668428   -0.472112
H       1.059642   -0.194749    2.140909
H       2.934137   -0.909333    0.548266
H       2.566196   -2.979857   -0.859111
H       1.075134   -3.249044    0.108054
H       1.573838    0.133039   -1.674540
