19

C       0.467633    1.567952    0.135288
C       0.949518    0.162914   -0.216814
C       0.127900   -0.500032   -1.306667
O      -0.741232    0.078714   -1.913537
C       0.408816   -1.994624   -1.598624
C      -0.254192   -2.447985   -2.922014
O      -0.124830   -3.837024   -3.127051
C       1.827945   -2.332417   -1.592632
C       2.989345   -2.641225   -1.655495
H       0.485036    2.216680   -0.743656
H      -0.560978    1.549926    0.505369
H       1.104272    2.009816    0.906520
H       1.992784    0.170938   -0.558215
H       0.950953   -0.498846    0.659998
H      -0.077791   -2.551543   -0.782311
H      -1.321339   -2.227645   -2.872960
H       0.169242   -1.863510   -3.750856
H       0.817845   -4.038164   -3.158397
H       4.019003   -2.901171   -1.684195
