21

O       0.209404    1.356679   -0.189392
C       0.068674   -0.035590   -0.047705
C       0.146890   -0.631783    1.397574
C      -1.363474   -0.260665    1.530603
C      -1.380841   -0.625081    0.013475
C      -1.075163   -2.117046    0.062476
C      -2.131279   -3.178885   -0.032251
C      -1.121198   -3.003498   -1.147851
C       0.075721   -2.142750    1.101980
H      -0.358322    1.798828    0.449697
H       0.737580   -0.472700   -0.794496
H       0.896774   -0.288539    2.111467
H      -1.981878   -0.859699    2.204524
H      -1.542193    0.798394    1.735735
H      -2.166164   -0.290496   -0.666108
H      -2.038034   -4.052399    0.606064
H      -3.156551   -2.875436   -0.221115
H      -1.467935   -2.580181   -2.085589
H      -0.350572   -3.759581   -1.261699
H       1.011865   -2.530239    0.686743
H      -0.171614   -2.730207    1.992158
