18

C       0.154562    1.542931   -0.301406
C       0.071446    0.034055   -0.105877
O      -1.275151   -0.421468   -0.027853
C       0.804045   -0.772019   -1.225093
N       2.181482   -0.390978   -1.444122
C       2.537652    0.465229   -2.442052
O       1.762675    1.141906   -3.085877
C       0.755888   -2.250530   -0.875233
O       1.745188   -2.933708   -0.766243
H       1.187160    1.893504   -0.243534
H      -0.233884    1.832633   -1.283123
H      -0.426990    2.038839    0.481014
H       0.519405   -0.231904    0.859569
H      -1.774329    0.017017   -0.726269
H       0.236995   -0.608105   -2.152858
H       2.860086   -1.075377   -1.133002
H       3.633732    0.492488   -2.593013
H      -0.257348   -2.649259   -0.690478
