22

C       0.069781    1.556495    0.114916
C      -0.020142    0.030548    0.192631
C      -1.393833   -0.509046   -0.233139
C      -1.461335   -2.020440   -0.159583
C      -1.851825   -2.745170    1.096264
C      -2.786510   -2.785412   -0.108599
C      -4.129720   -2.071645   -0.055852
C      -2.814907   -4.022110   -0.851870
N      -2.846414   -5.009047   -1.455721
H       1.058605    1.912185    0.419765
H      -0.112669    1.913099   -0.904848
H      -0.670661    2.031741    0.768032
H       0.755015   -0.416800   -0.442827
H       0.195637   -0.303369    1.215317
H      -2.165985   -0.060110    0.402269
H      -1.609735   -0.181402   -1.258836
H      -0.698573   -2.517946   -0.753173
H      -1.327234   -3.653015    1.369233
H      -2.200276   -2.153438    1.937083
H      -4.071223   -1.172502    0.560266
H      -4.461651   -1.780379   -1.056894
H      -4.892331   -2.726273    0.376025
