21

C       0.154815    1.486398    0.078983
O       0.405565    0.089037    0.136579
C       0.737648   -0.534862   -1.079969
C       2.051893   -0.028522   -1.681698
C       0.671103   -2.104319   -0.982302
C      -0.025699   -2.641470    0.262711
C      -0.208043   -2.151809   -2.274152
C      -0.397902   -0.635522   -2.138041
O      -1.195337    0.147645   -2.571836
H       1.071082    2.062956   -0.108188
H      -0.586064    1.730823   -0.689246
H      -0.234882    1.767089    1.060381
H       2.853279   -0.129321   -0.942392
H       2.325761   -0.609534   -2.567661
H       1.980292    1.020025   -1.983398
H       1.652610   -2.570746   -1.098236
H      -1.016858   -2.195654    0.388675
H      -0.145782   -3.727342    0.189473
H       0.549689   -2.416039    1.164136
H       0.335102   -2.423511   -3.184622
H      -1.126357   -2.743407   -2.227980
