17

N      -0.236880   -1.117811   -0.450631
C      -0.123792    0.002107   -0.186883
C       0.000572    1.413420    0.133488
C       0.286635    1.842077    1.603203
N       1.386282    2.740333    1.153242
C       1.325360    2.182177   -0.225526
C       2.513108    1.310244   -0.558727
C       3.808283    1.503039    0.103261
O       2.943837    0.423068    0.469148
H      -0.869682    1.938065   -0.269432
H      -0.544275    2.331636    2.116988
H       0.670549    1.028247    2.221908
H       1.100153    3.712688    1.166363
H       1.196482    2.925150   -1.020246
H       2.490375    0.868298   -1.556162
H       4.720975    1.213043   -0.414401
H       3.897031    2.285914    0.851890
