17

O      -0.046315   -0.081852    0.001408
C       0.019126    1.116349    0.008037
C       1.307052    1.925593   -0.000003
C       1.354740    2.823755   -1.262360
C       1.374887    2.067430   -2.507246
C       1.388102    1.422313   -3.520548
C       1.379129    2.810325    1.270605
C       1.422786    2.040799    2.506778
C       1.455120    1.384893    3.512699
H      -0.903026    1.748028    0.021055
H       2.141548    1.220444   -0.011815
H       0.489683    3.501696   -1.255589
H       2.242567    3.465606   -1.202306
H       1.398080    0.853639   -4.417322
H       2.265838    3.452693    1.200444
H       0.514298    3.488376    1.287555
H       1.482087    0.806742    4.403040
