22

C       0.118698    1.514409   -0.103860
C       0.012824    0.025369    0.002663
C      -1.092666   -0.729092    0.109821
C      -2.522290   -0.286979    0.166702
C      -0.734599   -2.193823    0.101781
C      -1.557033   -3.201461    0.862744
N      -0.114789   -2.580571   -1.204199
C       0.742626   -2.249019   -0.039939
C       1.272890   -0.825356   -0.055230
H       0.784825    1.918073    0.670144
H       0.551685    1.809003   -1.068760
H      -0.848165    2.014000   -0.007317
H      -2.620013    0.800959    0.176934
H      -3.083571   -0.665198   -0.697820
H      -3.028012   -0.673581    1.060517
H      -2.556894   -3.315786    0.428083
H      -1.074796   -4.184597    0.852093
H      -1.682958   -2.902722    1.909393
H      -0.147706   -3.597192   -1.285111
H       1.327399   -3.043830    0.412323
H       1.860752   -0.616836   -0.958356
H       1.930210   -0.629804    0.803984
