17

O      -0.137165    1.463838    0.167532
C       0.020204    0.064397    0.069147
C       0.661518   -0.609860    1.315783
C       0.020974   -1.987815    1.385352
N      -1.315503   -1.981790    1.991329
C      -1.206362   -1.980822    0.510230
C      -1.368014   -0.590882   -0.100878
C      -1.610078   -3.152784   -0.213552
N      -1.944814   -4.098250   -0.791260
H       0.732412    1.873643    0.127304
H       0.630840   -0.192388   -0.810782
H       1.750236   -0.670767    1.233063
H       0.410836   -0.030892    2.209453
H       0.629226   -2.881931    1.470364
H      -1.554715   -2.918623    2.312203
H      -2.111901   -0.019881    0.460784
H      -1.676111   -0.630592   -1.146990
