17

O      -0.128190    1.412285   -0.233910
C       0.016698    0.050254    0.141683
C      -1.359707   -0.580324    0.039632
C      -2.013848   -0.717769   -1.360638
C      -1.164008   -1.982364   -1.604120
C      -1.439265   -2.152092   -0.066921
C      -2.956905   -2.282888   -0.125265
O      -3.728177   -3.014030    0.416333
O      -3.313090   -1.293507   -1.014553
H       0.707410    1.862040   -0.077193
H       0.751698   -0.461663   -0.496069
H       0.369477   -0.045899    1.180370
H      -2.019237   -0.121619    0.781873
H      -2.149532    0.099422   -2.063068
H      -1.579184   -2.730808   -2.281799
H      -0.119685   -1.786797   -1.842525
H      -0.911438   -2.843620    0.584483
