19

C      -0.049210    1.613285    0.014202
C       0.145745    0.098984    0.155538
C       0.649224   -0.533503   -1.140678
C       0.901678   -2.050609   -1.270252
C      -0.349582   -2.839442   -1.307442
O      -1.455395   -2.473238   -0.536245
C       0.040886   -2.109697   -2.581563
C      -0.242744   -0.641671   -2.402657
O      -0.832985    0.165832   -3.064579
H       0.896885    2.116588   -0.216320
H      -0.749314    1.842106   -0.794447
H      -0.439947    2.046633    0.939831
H       0.870060   -0.111656    0.953258
H      -0.790307   -0.381356    0.448906
H       1.551890   -0.002700   -1.478422
H       1.863339   -2.521331   -1.108027
H      -0.196682   -3.917493   -1.380807
H      -2.251961   -2.650599   -1.048313
H       0.190398   -2.633655   -3.517862
