18

O      -0.103653    1.469953   -0.011236
C      -0.043011    0.063265    0.040139
C       0.311342   -0.663249    1.371598
C      -0.483283   -0.096598    2.558683
N      -1.735343   -0.817123    2.142206
C      -2.409398   -0.079128    1.017218
C      -1.413559   -0.647951   -0.012703
O      -1.868814   -1.111048   -1.248198
C      -0.915247   -1.599232    1.118884
H       0.792908    1.820244   -0.000112
H       0.573111   -0.350631   -0.771468
H       1.343846   -0.985854    1.514134
H      -0.141128   -0.486872    3.522247
H      -0.576821    0.992216    2.625189
H      -3.412710   -0.487244    0.858556
H      -2.464767    1.006684    1.138085
H      -2.072708   -0.345483   -1.798082
H      -0.938802   -2.687001    1.111148
