21

C      -0.315943    1.462297    0.025408
C       0.025542   -0.034483   -0.027238
C       0.785890   -0.365363   -1.321818
C       0.723074   -1.827125   -1.769384
C       1.173987   -2.899118   -0.821468
C       1.316536   -2.917121    0.510715
C       1.066629   -1.886498    1.547500
O       1.094577   -2.236061    2.714725
C       0.825924   -0.415936    1.227967
H       0.595633    2.071618    0.004111
H      -0.933125    1.756437   -0.829658
H      -0.862253    1.714652    0.939596
H      -0.920336   -0.595187   -0.025334
H       0.382274    0.242182   -2.140557
H       1.834956   -0.060899   -1.207642
H      -0.310864   -2.072454   -2.061943
H       1.301886   -1.938466   -2.695773
H       1.377479   -3.845331   -1.323384
H       1.615773   -3.854029    0.974355
H       1.820137    0.052377    1.161956
H       0.356918   -0.001338    2.125036
