15

N      -0.048564    0.319608   -1.075891
C       0.069676    0.003242    0.235978
O       0.816828    0.551998    1.020526
C      -0.836256   -1.136274    0.705670
O      -1.600025   -1.664421   -0.365819
C      -2.487342   -2.690070    0.014677
C      -1.783570   -4.030088    0.209084
O      -2.274894   -4.967819    0.776676
H       0.512836    1.066695   -1.448341
H      -0.695306   -0.178440   -1.662667
H      -0.194228   -1.900283    1.166560
H      -1.490940   -0.739307    1.495263
H      -3.056454   -2.439446    0.921345
H      -3.205758   -2.812017   -0.805949
H      -0.772426   -4.074247   -0.258234
