23

C      -0.127532    1.538519    0.127403
C       1.412957    1.433676   -0.004891
C       1.768471    0.699621    1.313394
C       0.637305   -0.398258    1.326234
C      -0.037812   -0.024533    0.004412
C      -1.079924   -0.797650   -0.771916
C      -0.934497   -0.231258   -2.215303
C       0.520127    0.347026   -2.344715
C       1.170665    0.222440   -0.950239
H      -0.536083    1.949940    1.055956
H      -0.609296    2.016111   -0.726192
H       2.037494    2.286542   -0.277172
H       2.770017    0.259541    1.287802
H       1.717902    1.366169    2.179474
H       1.041836   -1.415391    1.313899
H      -0.023339   -0.309397    2.194249
H      -0.836670   -1.867930   -0.750310
H      -2.099876   -0.690622   -0.388050
H      -1.137392   -0.996184   -2.970236
H      -1.669655    0.562664   -2.378736
H       1.100762   -0.218492   -3.078232
H       0.494309    1.378798   -2.707973
H       1.959714   -0.538217   -0.942908
