23

C       0.104301    1.520236    0.165737
C       0.053244    0.005573   -0.055446
C       0.658152   -0.480918   -1.392903
C      -0.096344    0.102575   -2.604460
O       2.011835   -0.006557   -1.384702
C       2.908373   -0.714967   -2.221830
C       3.052308   -2.170086   -1.775128
C       1.684388   -2.761004   -1.565662
C       0.607611   -1.992348   -1.424205
H       1.126459    1.889823    0.055407
H      -0.532029    2.061742   -0.540841
H      -0.243082    1.768030    1.173657
H       0.604012   -0.497569    0.746848
H      -0.983095   -0.349485    0.002393
H      -0.050182    1.194110   -2.597437
H       0.337488   -0.254098   -3.542613
H      -1.147864   -0.202282   -2.590583
H       2.574675   -0.685516   -3.270565
H       3.860094   -0.178811   -2.161796
H       3.607367   -2.739405   -2.531565
H       3.642018   -2.228097   -0.849865
H       1.591066   -3.843758   -1.542773
H      -0.379198   -2.433399   -1.305117
