23

C      -0.230805    1.564127    0.028796
C       0.005377    0.047983   -0.045460
C       0.766962   -0.378796   -1.315556
C       2.286085   -0.261439   -1.121126
C       2.686640   -0.736022    0.274212
C       1.717617   -1.684671    1.064767
C       2.405689   -1.187277    2.362417
C       2.182819    0.083662    1.501962
C       0.748539   -0.458938    1.194590
H       0.712093    2.120130   -0.013328
H      -0.855783    1.905351   -0.803252
H      -0.733913    1.842227    0.961504
H      -0.979922   -0.436771   -0.063767
H       0.529348   -1.428911   -1.523307
H       0.431417    0.194066   -2.187180
H       2.804463   -0.851356   -1.885715
H       2.623442    0.774738   -1.258057
H       3.743478   -1.019004    0.329224
H       1.450191   -2.714564    0.817624
H       1.822847   -1.263305    3.284978
H       3.443501   -1.497284    2.516107
H       2.459053    1.108964    1.758620
H       0.090895   -0.490084    2.071159
