23

C       0.337374    1.465587    0.367067
C      -0.216704    0.129508   -0.146353
C       0.575932   -0.436072   -1.318338
C       1.973312   -1.023246   -1.105183
C       0.861965   -1.956935   -1.461054
C       0.326011   -2.894155   -0.390656
C       0.848801   -2.608436   -2.837888
C       0.395406    0.330422   -2.581639
O      -0.431625    1.197277   -2.742657
H       1.373973    1.361997    0.705930
H       0.307826    2.227680   -0.415152
H      -0.255351    1.828177    1.212630
H      -0.242919   -0.587711    0.676714
H      -1.251476    0.273169   -0.474643
H       2.730485   -0.803532   -1.852890
H       2.344443   -1.019504   -0.085087
H       0.462602   -2.509612    0.621251
H      -0.740263   -3.100382   -0.536320
H       0.857485   -3.850959   -0.449170
H       1.369077   -3.571955   -2.790914
H      -0.175474   -2.803860   -3.174654
H       1.344963   -2.010399   -3.603940
H       1.100023    0.072193   -3.402160
