18

C      -0.253918    1.371037   -0.079804
O       0.129122    0.017493    0.066270
C       0.689175   -0.550043   -1.100794
C       1.281608   -1.910103   -0.671241
C       2.368401   -1.758863    0.293344
N       3.242972   -1.643853    1.039140
C      -0.290211   -0.731295   -2.178563
C      -1.100743   -0.888509   -3.055396
C      -2.078704   -1.074082   -4.117149
H       0.605250    2.003836   -0.348073
H      -1.033389    1.490311   -0.844025
H      -0.644242    1.693134    0.887459
H       1.510536    0.088654   -1.466510
H       0.481486   -2.510939   -0.228674
H       1.651475   -2.442212   -1.552309
H      -1.774177   -1.878432   -4.795347
H      -3.060104   -1.337489   -3.708593
H      -2.196916   -0.162767   -4.712950
