25

C      -0.315471    1.425799    0.013427
C      -0.000565   -0.065226   -0.147813
C       0.952178   -0.437594   -1.317672
C       2.359491    0.132838   -1.073122
C       0.988027   -1.988599   -1.496607
C       0.000895   -2.315806   -2.641309
C      -0.144734   -0.994541   -3.369190
C      -0.828095   -0.901718   -4.696998
C       0.377556    0.002587   -2.652874
H       0.583833    2.016453    0.214077
H      -0.790257    1.833635   -0.884633
H      -1.003130    1.585258    0.850116
H       0.438165   -0.444797    0.785069
H      -0.942558   -0.610325   -0.288389
H       2.781955   -0.250772   -0.136801
H       3.036635   -0.145822   -1.886945
H       2.353514    1.225818   -1.010817
H       1.997649   -2.293566   -1.791037
H       0.753056   -2.516088   -0.567152
H       0.368423   -3.115983   -3.295723
H      -0.975035   -2.658726   -2.268213
H      -1.859438   -1.273665   -4.638190
H      -0.859856    0.126902   -5.066868
H      -0.320331   -1.519616   -5.448964
H       0.375525    1.043316   -2.962913
