15

C       0.005640    1.502440   -0.013335
C       0.013570    0.047348   -0.009750
C       0.011984   -1.156526    0.000985
C       0.045283   -2.601841   -0.021698
C      -0.021622   -3.344960    1.353280
O      -1.453410   -2.969730    1.455274
C      -1.325542   -3.353995    0.027980
C      -0.569510   -4.587766    0.596658
O      -0.553736   -5.771761    0.589189
H       1.024295    1.905406   -0.014807
H      -0.508057    1.894617   -0.897900
H      -0.507184    1.895983    0.870917
H       0.774326   -2.999851   -0.736203
H       0.601556   -3.223162    2.235871
H      -2.198667   -3.242530   -0.610283
