17

C      -0.199162    1.260022   -0.023714
N       0.075069   -0.167068    0.121578
C       1.475732   -0.522671   -0.143128
C       0.937226   -0.493468    1.257688
C       1.021063   -2.041682    1.358137
C       1.589744   -2.067257   -0.075764
O       0.434327   -2.820944   -0.540592
C      -0.126323   -2.820999    0.733024
N      -1.177790   -3.351486    1.156779
H       0.636662    1.910997    0.283187
H      -0.432956    1.470924   -1.071301
H      -1.073551    1.513079    0.582656
H       2.131276    0.165191   -0.663083
H       1.105762    0.217750    2.056350
H       1.536324   -2.463647    2.217349
H       2.536227   -2.522958   -0.362153
H      -1.688045   -3.817077    0.403943
