20

C       0.053451    1.555936    0.172793
C      -0.021738    0.038352   -0.007142
C       0.713105   -0.452325   -1.262064
O       2.078893   -0.061296   -1.259318
C       0.557860   -1.979166   -1.442332
C       1.184932   -2.495791   -2.652385
C       1.698105   -2.911001   -3.658989
C       2.323522   -3.410551   -4.875122
H       1.094587    1.887939    0.189015
H      -0.446776    2.074372   -0.652617
H      -0.426587    1.869540    1.104547
H       0.411047   -0.464845    0.870406
H      -1.069156   -0.285249   -0.058341
H       0.289779    0.043163   -2.144237
H       2.521850   -0.540490   -0.549722
H       0.980082   -2.478382   -0.556588
H      -0.512282   -2.225370   -1.439745
H       2.911006   -4.314781   -4.679923
H       1.576361   -3.660847   -5.636629
H       2.999779   -2.665080   -5.308207
