14

C       0.025648   -1.182300    0.000569
C      -0.000145    0.018924    0.000629
C      -0.022266    1.458990    0.006779
C       0.498770    2.188618    1.260691
C       1.325658    2.206590    0.024560
C      -1.103510    2.073598   -0.707603
C      -2.012914    2.597445   -1.308261
C      -3.036214    3.194657   -1.983952
N      -3.906533    3.707571   -2.558561
H       0.041254   -2.244272   -0.004102
H      -0.033277    3.088484    1.544272
H       0.796975    1.545237    2.079196
H       2.204564    1.575815   -0.025069
H       1.372500    3.119038   -0.557244
