17

C      -0.313497   -1.258635   -0.289544
C      -0.150254   -0.082548   -0.099565
C       0.024203    1.347375    0.075478
O      -0.145694    1.832335    1.443451
C       1.077935    2.615349    1.362404
C       2.341326    2.001145    1.998164
C       2.320522    0.509747    1.866890
C       2.654282    1.319697    0.645498
C       1.431793    2.005296   -0.000602
H      -0.450611   -2.299828   -0.448504
H      -0.682662    1.872748   -0.582229
H       0.906674    3.680773    1.528510
H       3.003854    2.520091    2.680022
H       3.175649    0.006632    2.307415
H       1.387581   -0.033218    1.954864
H       3.609538    1.214778    0.146507
H       1.648088    2.613231   -0.877064
