19

C      -0.132073    1.488733   -0.021407
N       0.143652    0.056974    0.048087
C       0.678558   -0.494702   -1.189550
C       0.670799   -2.035026   -1.108893
N      -0.694672   -2.505800   -0.944760
C      -0.806340   -3.900364   -0.538914
C       1.274768   -2.605075   -2.326158
N       1.767472   -3.047397   -3.272926
H       0.738594    2.101099   -0.311364
H      -0.925904    1.670409   -0.753397
H      -0.487639    1.837680    0.952026
H       0.796469   -0.122370    0.805251
H       0.020890   -0.194374   -2.012020
H       1.695169   -0.145320   -1.433740
H       1.331430   -2.337059   -0.269302
H      -1.123521   -1.888979   -0.261068
H      -0.434119   -4.549738   -1.338131
H      -0.247416   -4.146085    0.382022
H      -1.859752   -4.142750   -0.376231
