23

C      -0.363036    1.432787    0.068112
C       0.139819   -0.009123   -0.101631
C       1.048419   -0.141667   -1.333374
C       0.808579   -0.531237    1.172474
C       2.087465    0.160155    1.613084
C      -0.090235   -1.055485    2.258000
C       0.750704   -2.037772    1.449312
C       0.129057   -2.960937    0.546437
C      -0.377225   -3.752139   -0.206787
H       0.465816    2.138783    0.189040
H      -0.931586    1.746740   -0.813269
H      -1.015504    1.528254    0.942046
H      -0.735306   -0.645870   -0.277563
H       1.930151    0.503985   -1.257863
H       1.388132   -1.173343   -1.462113
H       0.508601    0.150295   -2.240124
H       1.916704    1.223165    1.813598
H       2.474265   -0.287127    2.533987
H       2.872518    0.083511    0.854133
H       0.188485   -0.900256    3.295074
H      -1.159216   -1.068943    2.075412
H       1.619465   -2.440856    1.963244
H      -0.826561   -4.448419   -0.870204
