20

C       0.145419    1.540156   -0.034868
C       0.027260    0.030845    0.041628
N       0.952727   -0.737690   -0.856839
C       1.393574   -1.608364    0.260382
C       2.665639   -1.064494    0.926592
O       1.886354   -0.122835    1.716578
C       0.633749   -0.707394    1.265035
C      -0.219111   -1.081770    2.450576
O      -0.478900    0.069573    3.237486
H       1.176801    1.844238    0.157212
H      -0.147637    1.903036   -1.025259
H      -0.503977    2.006977    0.712808
H      -1.020687   -0.279352   -0.080949
H       0.476494   -1.238577   -1.597446
H       1.265577   -2.685763    0.144801
H       3.193364   -1.776213    1.574345
H       3.369291   -0.561093    0.257215
H      -1.189109   -1.473768    2.127091
H       0.285391   -1.866215    3.037331
H       0.384350    0.456082    3.431161
