19

C      -0.257318    1.520646    0.115894
C       0.108762    0.031895    0.032175
C       0.755837   -0.340674   -1.264608
O       1.575937   -1.524125   -1.334017
C       2.146651   -0.280110   -1.764098
C       1.697187   -0.063969   -3.218898
C       0.244394   -0.166285   -2.698444
C      -0.994835   -0.623737   -3.319485
O      -0.750671    0.773270   -3.060206
H       0.637097    2.148299    0.047440
H      -0.928292    1.802087   -0.698911
H      -0.751805    1.741758    1.066074
H       0.793271   -0.248302    0.840284
H      -0.792775   -0.581009    0.165352
H       3.056121    0.047954   -1.274279
H       1.902198    0.942723   -3.593328
H       2.037126   -0.813037   -3.937463
H      -1.000162   -0.901952   -4.372005
H      -1.773957   -1.081408   -2.712027
