16

N      -0.155064   -1.213022   -0.036514
C      -0.090742   -0.058715   -0.009807
C       0.029273    1.391748    0.039203
C      -0.259336    2.105100    1.379062
C       0.756137    1.719925    2.411824
C       1.137037    2.739051    1.367992
C       1.455200    2.020795    0.076191
C       2.713426    1.555944   -0.502359
O       1.972356    2.663206   -1.060338
H      -0.524353    1.840545   -0.789760
H      -1.212416    2.552446    1.626354
H       0.578222    2.121859    3.403568
H       1.201202    0.728521    2.405002
H       1.435954    3.752072    1.603045
H       3.655679    1.821663   -0.026833
H       2.728241    0.655474   -1.113374
