15

C      -0.088701    1.602472   -0.009463
C       0.026242    0.085902    0.012378
C       1.194738   -0.613733   -0.741461
O       2.375057   -0.022530   -0.133172
C       2.068116   -0.017208    1.215797
O       2.801217    0.386711    2.062931
C       0.678851   -0.635513    1.264988
C       0.926866   -1.786339    0.235496
O       0.799388   -2.965102    0.203439
H       0.872746    2.086536    0.176756
H      -0.456657    1.938335   -0.983663
H      -0.796395    1.942601    0.752054
H      -0.926737   -0.389490   -0.239131
H       1.307918   -0.676113   -1.819670
H       0.209336   -0.754479    2.235463
