12

N       0.032711    1.328718   -0.101688
C      -0.058566   -0.011196   -0.041114
C      -1.182578   -0.781101   -0.022742
C      -0.991560   -2.185519    0.045501
F      -2.083636   -2.937425    0.063782
N       0.113505   -2.844232    0.093310
O       1.265340   -2.042164    0.073791
C       1.259774   -0.688576    0.010594
O       2.304594   -0.082063   -0.001306
H       0.960211    1.724283   -0.106732
H      -0.774793    1.923492   -0.142987
H      -2.187825   -0.380279   -0.056878
