16

C       0.158870    1.470487    0.198131
C       0.026553   -0.054567    0.029816
C       0.764364   -0.828356    1.138212
O       2.164961   -0.548392    1.071134
C       2.781833   -0.073083    2.171352
O       3.948443    0.174714    2.200129
C      -1.371251   -0.479232    0.010020
C      -2.520468   -0.830701    0.027877
H       1.211513    1.763330    0.183451
H      -0.356014    1.989616   -0.613350
H      -0.286559    1.796204    1.143461
H       0.493412   -0.340017   -0.922050
H       0.364989   -0.552917    2.122554
H       0.631568   -1.904784    0.999973
H       2.090257    0.056525    3.026857
H      -3.536701   -1.139410    0.025258
