17

C      -0.339192    1.434691    0.128563
C      -0.071255   -0.047371    0.175076
O       1.252349   -0.498817   -0.134187
C       0.753623   -0.731448    1.187764
C       1.461475   -0.005766    2.283678
O       0.873882   -0.088756    3.580707
C       2.148857   -0.724211    3.383869
C       2.197228   -2.158804    3.466322
C       2.271997   -3.355421    3.551571
H       0.457637    2.012080    0.601057
H      -0.426481    1.767124   -0.910908
H      -1.282698    1.663635    0.635040
H      -0.850221   -0.659004   -0.285153
H       0.524996   -1.771860    1.416802
H       1.857626    0.973536    2.018091
H       2.976078   -0.208565    3.871124
H       2.332930   -4.413341    3.626167
