21

C      -0.136068    1.473718   -0.012948
N       0.008845    0.029577    0.021468
C       0.681377   -0.602277   -1.007916
O       1.293158    0.022464   -1.866109
N       0.642223   -1.980372   -0.982830
C       0.077760   -2.735690    0.122876
C       1.298525   -2.687700   -2.073552
C       2.758633   -3.026626   -1.796455
O       2.807074   -3.974916   -0.735860
H       0.791227    1.902665   -0.392577
H      -0.953685    1.808013   -0.666310
H      -0.320357    1.845078    0.999008
H      -0.717578   -0.482290    0.493675
H      -1.023304   -2.757605    0.102239
H       0.443882   -3.759850    0.072188
H       0.399107   -2.322787    1.085216
H       0.745662   -3.612140   -2.275284
H       1.253159   -2.052096   -2.959533
H       3.209718   -3.435433   -2.715175
H       3.291213   -2.101836   -1.537703
H       3.720508   -4.064756   -0.450913
