17

O       1.149766    1.815157    0.434693
C       0.524565    0.579873    0.094652
C       1.036766    0.023579   -1.213755
C       0.113868   -0.673703   -2.141721
N       0.658869    0.649125   -2.487533
C       0.684274   -0.423086    1.222567
C      -0.285349   -0.507240    2.316844
O      -0.273896   -1.480786    1.266978
H       2.092756    1.733472    0.255276
H      -0.544306    0.806608   -0.006740
H       2.078457   -0.301252   -1.182322
H       0.477460   -1.494195   -2.752920
H      -0.928101   -0.757106   -1.845294
H      -0.035920    1.373900   -2.319934
H       1.712435   -0.736769    1.420099
H       0.029745   -0.870478    3.293543
H      -1.143212    0.163727    2.323531
