20

C      -0.107734    1.521257    0.034475
C       0.022953    0.003498   -0.001409
C       0.840090   -0.582815   -1.200223
C       2.116461   -0.430630   -0.320473
C       1.152383   -0.614236    0.883313
N       0.882732   -2.037884    1.055506
C       0.561319   -2.833737   -0.010281
O       0.339167   -4.024713    0.086081
C       0.508215   -2.074701   -1.348593
H       0.849174    2.029953   -0.118492
H      -0.790945    1.865723   -0.749336
H      -0.511349    1.856700    0.996057
H      -0.957978   -0.456434    0.159877
H       0.799709   -0.056045   -2.157293
H       2.911388   -1.172300   -0.430689
H       2.541781    0.572886   -0.368116
H       1.389389   -0.165334    1.849371
H       0.942379   -2.479790    1.959368
H      -0.495206   -2.221772   -1.763558
H       1.203523   -2.576037   -2.030914
