19

C       0.085320    1.477743    0.064151
N      -0.128397    0.047045   -0.153291
C       0.691148   -0.530087   -1.214482
C       2.138664   -0.525714   -0.880210
N       3.254453   -0.493099   -0.578701
C       0.205930   -1.945653   -1.528171
O       0.024021   -2.732418   -0.384628
C      -0.710949   -2.168277   -2.700838
C       0.725013   -2.657671   -2.734985
H       1.132430    1.747131    0.271970
H      -0.241038    2.032823   -0.821824
H      -0.529807    1.803392    0.906895
H       0.073520   -0.459506    0.703170
H       0.567353    0.086771   -2.112034
H      -0.820905   -2.475138    0.002786
H      -1.486593   -2.915419   -2.575072
H      -0.990432   -1.321306   -3.317913
H       1.436685   -2.145165   -3.373253
H       0.895422   -3.721819   -2.625087
