15

C       0.125738    1.701911    0.057780
C       0.043378    0.158932   -0.018635
C       0.496991   -0.486809    1.299923
C      -1.388896   -0.231424   -0.374069
O      -2.112325   -0.877638    0.336308
C       0.975235   -0.300480   -1.136120
O       0.644360   -0.946684   -2.095424
H       1.165801    2.024019    0.173889
H      -0.274848    2.172557   -0.845943
H      -0.440373    2.069644    0.918412
H      -0.130207   -0.134800    2.122417
H       0.407778   -1.574862    1.256191
H       1.536917   -0.226756    1.521591
H      -1.736575    0.158522   -1.354427
H       2.034816    0.016464   -0.988384
