16

O       0.039316    1.232964    0.438369
C      -0.032314   -0.164606    0.276210
C      -1.377957   -0.577640   -0.320980
C      -1.613758   -2.087844   -0.330744
C      -2.402817   -2.336337    0.956666
O      -2.634653   -3.392245    1.478607
C      -2.842604   -0.962180    1.467633
O      -2.440113   -0.018591    0.491658
H      -0.807335    1.495277    0.822039
H       0.780258   -0.461992   -0.396238
H       0.124526   -0.695468    1.232884
H      -1.488437   -0.113987   -1.304742
H      -2.234330   -2.397756   -1.178478
H      -0.702618   -2.690910   -0.346861
H      -3.929578   -0.918249    1.592761
H      -2.381149   -0.778083    2.449761
