13

N      -0.016191    1.416970    0.156137
C       0.057329    0.043309    0.051268
N      -1.058328   -0.690618   -0.000788
O      -0.637716   -2.076212   -0.027420
C       0.673885   -2.033972   -0.000194
C       1.189024   -0.800188    0.058921
O       2.575557   -0.860565   -0.007193
C       2.817002   -2.256942    0.225092
O       1.595762   -3.013285   -0.069753
H       0.724675    1.911961   -0.319002
H      -0.930285    1.780751   -0.078553
H       3.610038   -2.607858   -0.435841
H       3.058199   -2.422623    1.284182
