17

C      -0.122182    1.549396    0.147862
C       0.065035    0.059216    0.000084
C      -0.818789   -0.892724    0.733338
C       0.655975   -0.779527    1.141405
C       1.546015   -1.814534    0.565903
O       2.336782   -2.529920    1.123848
C       1.348377   -1.771490   -0.986574
O       1.749957   -2.606666   -1.748182
C       0.610524   -0.477633   -1.323174
H       0.813736    2.086730   -0.040467
H      -0.869952    1.921433   -0.561814
H      -0.462449    1.806978    1.155557
H      -1.522839   -0.488964    1.452568
H      -1.156122   -1.802888    0.245892
H       0.888692   -0.361563    2.112858
H      -0.155278   -0.642895   -2.087451
H       1.345538    0.219401   -1.747599
