21

C      -0.008846    1.542355   -0.064920
C      -0.000615    0.044865    0.000702
C       0.470326   -1.041103   -0.981941
C       1.227973   -1.770093    0.124035
C       0.494002   -0.871020    1.177806
C       1.317618   -0.277214    2.301131
C      -0.800417   -1.572136    1.602191
O      -1.506879   -1.818238    0.381806
C      -0.984912   -0.912472   -0.569080
H       0.990594    1.963122    0.095919
H      -0.355295    1.886461   -1.045095
H      -0.676729    1.974881    0.689793
H       0.782267   -0.934105   -2.015817
H       1.079757   -2.852513    0.210777
H       2.299596   -1.554432    0.095087
H       2.192524    0.254895    1.914069
H       0.731361    0.431345    2.897544
H       1.680306   -1.059753    2.977533
H      -0.626834   -2.532810    2.099865
H      -1.399902   -0.932370    2.270940
H      -1.710404   -0.604272   -1.313367
