16

C      -0.201305    1.415263   -0.389166
O      -0.262288    0.017346   -0.533514
C      -0.997436   -0.607859    0.494130
C      -1.007371   -2.083776    0.259503
C      -0.413374   -2.750767   -0.764603
O      -0.631548   -4.090678   -0.656430
C      -1.379902   -4.278353    0.460096
C      -1.642879   -3.091358    1.064044
H       0.383677    1.804788   -1.225615
H      -1.203175    1.873036   -0.411950
H       0.287366    1.708308    0.553780
H      -0.553432   -0.376983    1.479530
H      -2.030003   -0.214842    0.522008
H       0.171368   -2.427078   -1.607244
H      -1.639552   -5.299408    0.685859
H      -2.215195   -2.943269    1.967012
