18

C      -0.088149    1.586945   -0.086066
C       0.005596    0.037508   -0.021279
C       0.797230   -0.449503    1.230651
C       2.259783   -0.016541    1.286587
O       2.800848   -0.601846    2.460186
C      -1.348090   -0.530204    0.027164
C      -2.460705   -0.974672    0.101416
C       0.677657   -0.446215   -1.247074
N       1.227877   -0.803704   -2.198162
H       0.902477    2.032410   -0.196422
H      -0.703912    1.893563   -0.933480
H      -0.548032    1.956249    0.833754
H       0.273110   -0.079707    2.117141
H       0.760759   -1.541628    1.266689
H       2.786217   -0.360690    0.384120
H       2.340184    1.080551    1.320766
H       3.739153   -0.394371    2.494408
H      -3.442830   -1.376301    0.154648
