17

C      -0.329303    1.303993   -0.776592
C      -0.032725    0.001057   -0.061980
C       1.094290   -0.848011   -0.552809
N       1.203752   -0.133517    0.730639
C      -1.203175   -0.656720    0.568474
C      -1.290828   -1.269072    1.774796
O      -2.568886   -1.738003    1.921512
C      -3.190397   -1.372140    0.780271
N      -2.446471   -0.732349   -0.060217
H       0.567902    1.688299   -1.272168
H      -1.108690    1.157667   -1.529033
H      -0.687322    2.061952   -0.071237
H       1.031362   -1.928760   -0.468440
H       1.665118   -0.486297   -1.404475
H       1.773952    0.701055    0.616927
H      -0.604093   -1.445193    2.582188
H      -4.230118   -1.643221    0.683974
