20

C       0.113140    1.632328    0.208845
C       0.063796    0.101760    0.043803
C       0.844452   -0.459906   -1.177209
C       1.210615    0.490239   -2.315918
C       2.086337   -1.147448   -0.560130
O       3.038193   -1.538993   -1.207210
C       1.866766   -1.245130    0.873089
C       0.727320   -0.595734    1.221226
N       0.151336   -0.524695    2.449491
H       1.143774    1.988173    0.297663
H      -0.348920    2.131294   -0.646872
H      -0.427745    1.954710    1.105327
H      -0.992340   -0.194853   -0.001327
H       0.249766   -1.279315   -1.602890
H       1.776363    1.357351   -1.962902
H       1.847336   -0.047511   -3.022974
H       0.325749    0.853050   -2.848437
H       2.538120   -1.767114    1.542946
H       0.668602   -0.829175    3.257683
H      -0.562292    0.162918    2.620879
