19

O      -0.229265    1.504758    0.294689
C      -0.017318    0.109848    0.112482
C      -1.335422   -0.611339   -0.031476
C      -2.256557   -0.635252    1.204474
O      -2.423317   -2.070723    1.131128
C      -1.616496   -2.148400   -0.058088
C      -2.464287   -1.993325   -1.346310
C      -2.077285   -0.481868   -1.396040
O      -3.056993    0.512717   -1.567763
H      -0.807805    1.807432   -0.414764
H       0.625881   -0.088943   -0.761036
H       0.525136   -0.231272    1.001383
H      -1.763558   -0.330483    2.134611
H      -3.211391   -0.095687    1.131814
H      -0.861416   -2.936127   -0.009723
H      -2.145125   -2.574327   -2.214533
H      -3.523121   -2.188858   -1.155923
H      -1.346044   -0.297753   -2.190855
H      -3.779150    0.340144   -0.954086
