18

C      -0.012708    1.419631   -0.257993
C       0.059259   -0.043622    0.199713
C       0.721217   -0.183699    1.577065
C      -1.329051   -0.650130    0.212777
N      -1.897133   -1.058537   -1.070681
C      -1.590767   -2.099916   -0.066357
C      -0.523299   -3.017247   -0.386652
N       0.332074   -3.763278   -0.607646
H       0.988516    1.857051   -0.317595
H      -0.478137    1.496728   -1.244890
H      -0.597818    2.025720    0.444490
H       0.650805   -0.604061   -0.533614
H       0.804271   -1.233139    1.875804
H       1.728615    0.242935    1.566070
H       0.146750    0.344512    2.347624
H      -2.009999   -0.208900    0.942443
H      -2.901973   -0.908192   -1.103013
H      -2.416955   -2.567297    0.462747
