15

C      -0.052466    1.543684    0.007859
C       0.094101    0.049534    0.013445
N      -0.764071   -0.825512    0.849781
C       0.704256   -0.779886    1.085817
C       1.365934   -1.940476    0.407996
O       2.070134   -2.792264    0.848684
O       1.048148   -1.873639   -0.945079
C       0.420780   -0.674682   -1.256704
N       0.202919   -0.262210   -2.422147
H       0.846544    2.021091   -0.391227
H      -0.893370    1.837240   -0.626073
H      -0.225678    1.919889    1.020751
H      -1.208323   -0.242011    1.558572
H       1.110803   -0.397782    2.012797
H       0.529790   -0.930608   -3.121665
