17

O       0.418937    0.808130    0.830318
C      -0.026842   -0.303208    0.087929
C      -1.588743   -0.376796   -0.104275
O      -2.218394    0.831423    0.229886
C      -1.352434   -0.557919   -1.618213
C      -1.935412   -1.592309   -2.564613
C      -2.246847   -0.147432   -2.763653
C       0.090807   -0.212374   -1.449659
O       0.981446    0.154097   -2.168573
H       1.028966    1.305300    0.271796
H       0.390790   -1.238022    0.483355
H      -2.079803   -1.217093    0.399132
H      -1.545870    1.365436    0.679118
H      -1.246508   -2.076199   -3.248752
H      -2.703659   -2.238446   -2.152376
H      -3.227050    0.222785   -2.485371
H      -1.765911    0.377519   -3.582097
