18

C      -0.189590    1.604525    0.204170
C       0.021460    0.115664    0.127561
N       0.988530   -0.362029   -0.904420
C       1.704810   -1.246260    0.054230
C       0.752210   -0.797932    1.187563
O       1.276189   -0.222323    2.342402
C      -0.514136   -1.692006    1.318221
C      -1.171543   -0.856312    0.202817
O      -2.188954   -0.962202   -0.422698
H       0.772243    2.122907    0.238138
H      -0.739666    1.951368   -0.677073
H      -0.767457    1.874377    1.093624
H       0.566832   -0.825121   -1.703158
H       1.692447   -2.318078   -0.176886
H       2.741985   -0.925120    0.200572
H       1.624082   -0.919815    2.908749
H      -0.430287   -2.772519    1.168996
H      -1.020250   -1.494756    2.270370
