16

C       0.165865    1.384523    0.152995
C      -0.029244   -0.072938   -0.057122
N      -0.411391   -0.692431   -1.128751
C      -0.419433   -2.035845   -0.770633
C      -0.036513   -2.161692    0.520856
C       0.135632   -3.312341    1.458290
C       1.513255   -3.504071    1.912605
C       2.643624   -3.659105    2.287038
O       0.217118   -0.900542    0.995091
H       1.200271    1.606756    0.434820
H      -0.072437    1.908894   -0.772522
H      -0.481113    1.758262    0.953402
H      -0.697812   -2.809870   -1.468402
H      -0.518562   -3.182133    2.331346
H      -0.214819   -4.214779    0.944436
H       3.644130   -3.795023    2.615649
