16

C       0.017731    1.527008   -0.027105
N       0.043393    0.064362    0.037367
C      -1.113374   -0.709054    0.641487
C      -0.128856   -1.907656    0.697435
C       0.622231   -0.659313    1.240037
C      -0.638287   -0.387195    2.104580
O      -0.772387    0.884976    2.679149
H       1.032452    1.867897   -0.262250
H      -0.618672    1.809643   -0.873869
H      -0.328965    2.048179    0.868341
H      -2.118641   -0.678580    0.215704
H      -0.345316   -2.715563    1.398321
H       0.216308   -2.251910   -0.274850
H       1.672177   -0.569424    1.523841
H      -0.872305   -1.168500    2.843610
H      -1.642381    0.939180    3.086768
