13

N       0.016161    1.412105    0.166319
C       0.026942    0.029871    0.050026
C      -1.093274   -0.803115    0.021510
N      -0.632716   -2.116287   -0.018692
C       0.722484   -2.116852   -0.024741
C       1.169402   -0.811291    0.017841
C      -2.453499   -0.462399    0.020068
N      -3.574255   -0.154130    0.012493
H       0.798594    1.873782   -0.274113
H      -0.859323    1.846359   -0.092216
H      -1.227630   -2.925265   -0.046220
H       1.277875   -3.040608   -0.056743
H       2.199773   -0.491894    0.034734
