10

O       0.132379    1.334498    0.037085
C       0.083193    0.001998    0.030791
N       0.082934   -0.740799   -1.067933
N       0.024522   -1.985178   -0.579097
N      -0.012462   -2.115085    0.724622
C       0.023955   -0.845489    1.163613
C       0.003061   -0.496903    2.535679
N      -0.012628   -0.179797    3.648216
H       0.166490    1.643800   -0.877331
H       0.009757   -2.787256   -1.188961
