20

C      -0.177633    1.314642   -0.204633
C       0.135447   -0.129346    0.113123
N       1.506431   -0.595245   -0.067653
C       0.937119   -0.618727    1.296963
C       1.552424    0.403064    2.204505
O       1.469003    0.373327    3.407153
C       0.544180   -1.898236    1.980269
C       0.232079   -3.161717    1.224663
C       1.494186   -3.068429    2.046696
H       0.670301    1.968820    0.005821
H      -0.421831    1.418138   -1.267396
H      -1.040317    1.662425    0.373000
H      -0.655099   -0.827534   -0.161362
H       1.534047   -1.533707   -0.458792
H       2.105566    1.206925    1.674627
H      -0.036524   -1.718855    2.878696
H      -0.582128   -3.779484    1.586420
H       0.331580   -3.171492    0.142718
H       2.434485   -2.986773    1.511067
H       1.557661   -3.627420    2.972938
