21

C      -0.067818    1.554564   -0.166511
C       1.408578    2.138794   -0.056459
C       2.208984    0.845151   -0.150314
C       3.317496    0.045734    0.601249
C       3.128805    0.370704    2.090720
C       1.584737    0.185775    2.122987
C       1.373070   -0.147068    0.624314
C      -0.019229   -0.018878    0.053207
O       2.451501   -1.143682    0.429483
H      -0.721728    2.025994    0.571262
H      -0.492806    1.777954   -1.148024
H       1.616373    2.853843   -0.855741
H       1.546100    2.661717    0.893842
H       2.239570    0.504996   -1.190084
H       4.321799   -0.094948    0.202295
H       3.659978   -0.340081    2.726870
H       3.456888    1.381970    2.348621
H       1.270699   -0.661946    2.736357
H       1.040119    1.071316    2.459822
H      -0.825125   -0.364186    0.706434
H      -0.102521   -0.545083   -0.901395
