14

N      -0.686962   -0.366869   -1.157193
C      -0.241992    0.305313   -0.330621
C       0.312762    1.147131    0.730327
C       1.616780    1.790154    0.344357
N       2.705648    1.665138    0.979483
C       3.691277    2.492180    0.261963
C       2.913524    3.069530   -0.950785
O       1.564610    2.572714   -0.760269
H      -0.418182    1.928336    0.970854
H       0.481025    0.549755    1.628735
H       4.072731    3.272323    0.928653
H       4.542838    1.875139   -0.039792
H       2.872312    4.161007   -0.972444
H       3.274463    2.705825   -1.916214
