21

C       0.016967    1.551644   -0.008302
C       0.089274    0.020912   -0.014216
C       0.740803   -0.536069   -1.289765
C       0.760267   -2.069081   -1.252965
C       1.435147   -2.552716    0.028946
O       0.825800   -1.989478    1.193909
C       0.791298   -0.582538    1.235393
C       2.151084    0.047053    1.523716
O       3.207962   -0.529497    1.500786
H       0.999853    2.010509   -0.158139
H      -0.630208    1.899122   -0.819908
H      -0.394779    1.936995    0.931018
H      -0.936400   -0.369122    0.029260
H       0.196604   -0.173751   -2.169386
H       1.767736   -0.153554   -1.376364
H      -0.268037   -2.450102   -1.289887
H       1.290647   -2.476681   -2.120937
H       1.328933   -3.634447    0.149149
H       2.504405   -2.312836    0.015343
H       0.178437   -0.330441    2.114990
H       2.095607    1.125494    1.799573
