24

C       0.058376    1.540910   -0.325245
C       0.182486    0.050080   -0.092529
C       1.514793   -0.610190    0.028820
N       0.619427   -0.531679    1.176716
C       0.994837    0.328249    2.295262
C       1.667249   -0.475823    3.395949
C       0.824550   -1.595747    3.974199
C       3.162211   -0.675938    3.305286
C       2.586773    0.277948    4.325851
H       0.916138    2.098605    0.058273
H      -0.014213    1.743639   -1.399088
H      -0.845875    1.941757    0.146622
H      -0.619375   -0.526167   -0.554271
H       1.695748   -1.602067   -0.377948
H       2.385811    0.045869    0.020260
H       1.661374    1.155332    1.998613
H       0.074650    0.781421    2.688147
H       0.516468   -2.289968    3.187793
H       1.377981   -2.153864    4.735963
H      -0.084011   -1.199903    4.444531
H       3.573715   -1.616211    3.656661
H       3.692238   -0.252286    2.458629
H       2.728868    1.342173    4.165237
H       2.603766   -0.016467    5.370033
