21

C      -0.000274    1.386095    0.128556
O      -0.029508    0.002229   -0.168314
C      -1.276960   -0.611428   -0.000926
C      -1.238353   -1.971423   -0.720901
C      -2.553508   -2.744231   -0.563517
C      -2.909072   -2.950628    0.914159
C      -2.962846   -1.605284    1.667066
C      -1.672180   -0.821103    1.471037
O      -1.000373   -0.417126    2.390480
H       0.999729    1.741794   -0.130857
H      -0.737350    1.937941   -0.476768
H      -0.187492    1.579503    1.189447
H      -2.077322    0.003061   -0.458626
H      -1.002032   -1.795529   -1.774606
H      -0.405982   -2.549855   -0.301148
H      -3.364949   -2.195529   -1.061203
H      -2.476461   -3.711086   -1.071989
H      -3.868794   -3.468316    1.013420
H      -2.154783   -3.593768    1.385103
H      -3.793927   -1.005866    1.269478
H      -3.126382   -1.737384    2.739223
