16

N       0.785561   -0.284129   -0.472035
C      -0.277299    0.331361    0.117870
O      -0.273722    1.468080    0.545433
C      -1.485378   -0.560619    0.214074
N      -2.849125   -0.115707    0.611785
C      -2.996654   -1.596755    0.419290
C      -2.049662   -1.582715   -0.821681
N      -1.127228   -2.666614   -0.344774
C      -1.557297   -1.970963    0.913576
H       1.673203    0.191490   -0.473868
H       0.737784   -1.271744   -0.683553
H      -2.865850    0.134884    1.602722
H      -3.938208   -2.130734    0.557646
H      -2.290362   -1.401426   -1.868428
H      -1.570121   -3.584704   -0.426046
H      -1.207537   -2.250821    1.909137
