19

C      -0.076644    1.605290    0.033581
C       1.441025    1.264994   -0.007777
C       1.260331    0.048083    0.949943
C       1.889525   -0.995230   -0.001927
C       1.207544   -2.377092    0.029503
C      -0.308263   -2.295254    0.072964
C      -0.929011   -1.111408    0.081137
C      -0.026853    0.066464    0.045006
C       1.205491    0.032328   -0.932878
H      -0.446369    2.097109    0.940089
H      -0.498743    2.082067   -0.857966
H       2.288850    1.950769   -0.038209
H       1.247057    0.069165    2.041858
H       2.982065   -1.070992   -0.033115
H       1.516025   -2.964461   -0.847797
H       1.566844   -2.949850    0.897070
H      -0.862930   -3.229153    0.096930
H      -2.009423   -1.011703    0.111763
H       1.128680    0.035154   -2.022369
