14

O      -0.072283    1.339107    0.009630
C       0.011436    0.005183    0.002606
C       1.223519   -0.629469   -0.007769
C       1.540403   -2.017055   -0.016317
N       0.802993   -3.088662   -0.018170
C      -0.559532   -3.071558   -0.011335
C      -1.476734   -2.062944   -0.000297
C      -1.350279   -0.615109    0.008148
O      -2.329983    0.114142    0.019271
H       0.813208    1.724644    0.005858
H       2.099645    0.019655   -0.009603
H       2.614211   -2.215860   -0.022686
H      -0.978448   -4.077239   -0.015408
H      -2.520648   -2.365503    0.003457
