21

C       0.089454    1.422217   -0.370890
O       1.212647    0.525345   -0.348363
C      -0.078202   -0.008717   -0.110582
C      -0.519180   -0.702388    1.179317
C      -1.498433   -1.546701    0.308918
C      -0.751730   -1.087996   -0.971736
C      -1.403712   -0.748023   -2.332261
C      -0.139728   -1.305445   -3.041113
C       0.232397   -2.033492   -1.721812
H       0.042792    2.130563    0.456052
H      -0.153102    1.836668   -1.348412
H       0.288814   -1.303046    1.606302
H      -0.947722   -0.076755    1.965596
H      -1.517048   -2.623293    0.493839
H      -2.523215   -1.165955    0.346797
H      -2.283609   -1.373875   -2.514277
H      -1.681084    0.294953   -2.511151
H      -0.288617   -1.917485   -3.933430
H       0.577169   -0.513784   -3.273101
H       1.278640   -2.006558   -1.409688
H      -0.122440   -3.068835   -1.706677
