16

C      -0.007599    1.442743    0.022896
N       0.025009   -0.010064    0.011469
C       0.049536   -0.777204   -1.105759
O       0.043716   -0.160430   -2.307607
C       0.077265   -2.122545   -0.760591
C       0.068831   -2.164735    0.644212
C       0.036524   -0.862482    1.124051
C       0.016980   -0.400745    2.490073
O       0.026780   -1.129187    3.466000
H       0.869158    1.848247    0.535709
H      -0.007411    1.796014   -1.007565
H      -0.909521    1.808532    0.521774
H       0.064025   -0.831563   -2.996689
H       0.100382   -2.952212   -1.450225
H       0.084133   -3.039080    1.275718
H      -0.008578    0.706074    2.614306
