15

C       0.003628    1.473813    0.098913
N      -0.030865    0.053448   -0.193718
C      -1.186710   -0.668204   -0.074148
C      -1.304621   -2.045598    0.003101
O      -2.636959   -2.401650    0.062337
C      -3.338774   -1.257850    0.030040
C      -2.529729   -0.166030   -0.049552
C      -0.317630   -3.037441    0.033030
N       0.552589   -3.807353    0.058454
H       1.015604    1.843374   -0.077398
H      -0.667480    2.017234   -0.574190
H      -0.279239    1.712071    1.134864
H       0.814994   -0.457912    0.006464
H      -4.410846   -1.365591    0.072313
H      -2.844778    0.863713   -0.087383
