19

O       0.085035    1.420651    0.004491
C      -0.019602    0.026053    0.052686
C      -1.453761   -0.591536    0.026253
C      -1.578329   -2.041467    0.595853
C      -1.614958   -2.622769   -0.855116
C      -1.189077   -1.251202   -1.369416
C      -1.331664   -0.476994   -2.669813
O      -0.074488    0.218178   -2.413136
C       0.253962   -0.672865   -1.314004
H      -0.069776    1.657977   -0.922445
H       0.595465   -0.331361    0.886200
H      -2.290010    0.083428    0.216108
H      -0.702290   -2.353168    1.172892
H      -2.467943   -2.232036    1.198515
H      -0.967474   -3.473735   -1.086370
H      -2.635623   -2.874597   -1.160468
H      -1.255589   -1.082052   -3.583452
H      -2.177064    0.214524   -2.761801
H       1.183866   -1.221087   -1.492824
