18

O      -0.587569    0.721210    0.702249
C       0.091015    1.017555   -0.246876
C       1.331062    1.891067   -0.172826
C       1.289447    3.014345   -1.178553
C       0.249774    4.133716   -1.335922
C       1.191945    4.263079   -2.532344
C       2.468710    3.889397   -1.723014
C       2.781046    2.812912   -2.754086
N       1.258171    2.722347   -2.717572
H      -0.150728    0.658571   -1.270429
H       1.432138    2.276440    0.846388
H       2.199651    1.249846   -0.382722
H      -0.773696    3.818326   -1.557378
H       0.275357    4.935836   -0.594107
H       1.131283    4.913018   -3.406246
H       3.127188    4.555221   -1.154761
H       3.170845    3.130202   -3.726534
H       3.288055    1.899819   -2.425156
