18

C      -0.022200    1.545646   -0.090679
N      -0.045039    0.091222    0.046494
C      -1.187963   -0.706943    0.539743
C      -0.163958   -1.889766    0.590752
C       0.750602   -0.692561    1.015665
C       0.138823   -0.396888    2.418743
N      -0.648892    0.855856    2.483310
C      -1.299627   -0.407528    2.065600
H       0.714005    2.004309    0.574171
H       0.229725    1.807839   -1.127575
H      -0.988456    1.991912    0.157467
H      -2.098750   -0.729952   -0.059992
H      -0.338575   -2.679385    1.325889
H       0.080728   -2.286665   -0.393942
H       1.835791   -0.700755    0.905921
H       0.542020   -0.839958    3.322398
H      -0.889386    1.030105    3.457624
H      -2.069214   -0.859255    2.681350
