15

C      -0.047529    1.356927   -0.047015
O       0.027026   -0.074787    0.039013
C       0.666649   -0.540345    1.118299
O       1.164953    0.123394    1.987478
N       0.683077   -1.941518    1.104107
C       1.271775   -2.732679    2.084788
C       1.060478   -4.015323    1.685811
N       0.359272   -4.054029    0.488011
C       0.149262   -2.810094    0.166755
H       0.954761    1.789175   -0.086514
H      -0.592360    1.564684   -0.967127
H      -0.579093    1.763572    0.816124
H       1.759760   -2.282585    2.931047
H       1.367063   -4.923049    2.181843
H      -0.368181   -2.445691   -0.705389
