15

C       0.129235    1.343518   -0.077973
O       0.131271   -0.076877   -0.026799
C       0.648978   -0.597003    1.149692
C       0.577811   -2.134563    1.076203
N       1.943529   -2.443454    0.721826
C       2.800246   -1.399642    0.955639
O       3.996534   -1.384071    0.899289
O       2.040512   -0.299702    1.291898
H       1.147580    1.745054   -0.052917
H      -0.351081    1.622584   -1.017191
H      -0.443281    1.767498    0.760090
H       0.146242   -0.164978    2.024847
H       0.278248   -2.568569    2.038614
H      -0.138159   -2.432385    0.306573
H       2.314145   -3.375908    0.665152
