21

C       0.244157    1.425329   -0.164601
C       0.024774   -0.063682    0.057374
C      -1.441375   -0.445774   -0.122684
O       0.855162   -0.866225   -0.844599
C       1.432867   -1.624758    0.230324
C       2.788384   -1.041336    0.695707
C       2.050108   -0.180174    1.768814
C       0.685415   -0.745906    1.292044
O      -0.236826   -1.154792    2.253801
H       1.304129    1.686903   -0.134085
H      -0.142947    1.716385   -1.146372
H      -0.284788    2.010803    0.594987
H      -1.749345   -0.207176   -1.145480
H      -1.593756   -1.512866    0.048785
H      -2.079412    0.105097    0.574496
H       1.330802   -2.704908    0.095006
H       3.474570   -1.777267    1.122804
H       3.303990   -0.486895   -0.090267
H       2.273868   -0.507195    2.790307
H       2.183025    0.903136    1.732271
H       0.241628   -1.531855    2.998761
