11

O       0.134063    1.335185    0.028107
C       0.083203   -0.002596    0.028602
N       0.080010   -0.740715   -1.072106
N       0.021778   -1.985871   -0.584660
N      -0.012686   -2.113295    0.724226
C       0.025407   -0.844283    1.168680
C       0.008139   -0.486636    2.533271
C      -0.005267   -0.152088    3.688680
H       0.166103    1.631047   -0.890365
H       0.005189   -2.787006   -1.193779
H      -0.017230    0.140162    4.709384
