18

O       0.143732    0.461289    0.924893
C      -0.202672    0.153375   -0.419307
C      -1.532750   -0.552744   -0.411855
C      -1.805554   -1.648592   -1.408218
C      -1.580226   -1.987618    0.037144
C      -0.519931   -2.829274    0.739935
O      -1.564871   -3.350483    1.628164
C      -2.540645   -2.599302    0.995538
N      -3.774777   -2.507589    1.198642
H       0.924851    1.022857    0.914546
H      -0.271203    1.065072   -1.032255
H       0.556891   -0.495851   -0.885783
H      -2.377965    0.054003   -0.101168
H      -2.815469   -1.762714   -1.785714
H      -1.020319   -1.907152   -2.112290
H      -0.065517   -3.638416    0.161737
H       0.231764   -2.271909    1.302716
H      -4.073892   -3.098962    1.974755
