17

C      -0.190775    1.425233    0.247878
C      -0.028914   -0.011134   -0.081771
C       0.146277   -0.726638   -1.216025
N       0.230645   -2.085652   -0.917194
C       0.111394   -2.123919    0.372928
O      -0.049891   -0.914691    0.963353
N       0.200733   -3.209709    1.224103
C      -1.039129   -3.827888    1.722798
C      -0.199952   -4.507730    0.697540
H       0.603156    1.779644    0.915193
H      -0.154492    2.016842   -0.669902
H      -1.148335    1.622205    0.743706
H       0.216254   -0.366066   -2.230406
H      -1.005803   -4.139814    2.761449
H      -1.979686   -3.394075    1.394873
H      -0.564755   -4.529006   -0.324555
H       0.444966   -5.332305    0.983851
