16

C       0.036163   -1.171714   -0.016388
C       0.005205    0.031378    0.001867
C      -0.058332    1.462017    0.027427
C      -1.033981    2.292209    0.901459
N      -0.856978    3.424501   -0.073550
C       0.612628    3.701813   -0.056276
C       0.912838    2.978222   -1.335250
C       1.247366    2.311101   -0.012468
C      -0.507462    2.400848   -1.167655
H       0.068082   -2.232847   -0.032471
H      -2.060485    1.919154    0.851212
H      -0.754359    2.510952    1.935653
H       1.043241    4.593388    0.379805
H       1.517827    3.237754   -2.192034
H       2.209198    2.082645    0.424092
H      -1.250961    2.149095   -1.920485
