15

C      -0.203534    1.399391   -0.091319
N       0.002153   -0.047285   -0.066860
C       0.903735   -0.542889   -1.100428
C       0.697811   -2.070801   -1.209138
O      -0.669497   -2.372449   -1.342751
C       1.437937   -2.606823   -2.361615
N       2.055196   -3.006369   -3.252137
H       0.726499    1.983064   -0.000637
H      -0.686833    1.680553   -1.032246
H      -0.869998    1.683775    0.727348
H       0.345699   -0.325022    0.847767
H       0.611973   -0.087328   -2.052375
H       1.966872   -0.312165   -0.930146
H       1.120717   -2.547567   -0.306481
H      -1.106103   -1.673001   -0.826439
