19

C       0.022794    1.500350    0.018512
C       0.023767   -0.030144    0.008694
C      -1.394564   -0.578267   -0.165685
C       1.048050   -0.644506   -0.986765
O       2.288388    0.041123   -0.639098
C       2.251465   -0.736813    0.554688
C       1.521489   -1.902027   -0.105366
O       0.627038   -2.086424    0.988996
C       0.787202   -0.653152    1.211425
H       1.029610    1.905910    0.125222
H      -0.402789    1.893996   -0.910973
H      -0.595233    1.870044    0.844458
H      -1.819262   -0.226250   -1.112539
H      -1.411804   -1.668763   -0.157638
H      -2.048793   -0.224507    0.638591
H       0.838509   -0.665575   -2.055153
H       3.155281   -0.747629    1.160583
H       1.932970   -2.801595   -0.558763
H       0.569506   -0.336370    2.230278
