19

O      -0.193788    1.381680    0.013297
C       0.021124   -0.003217    0.012923
C       0.947877   -0.707987   -1.020313
N       1.234034   -1.751205    0.027210
C       0.912688   -0.704478    1.063835
C       0.164923   -2.773386    0.009622
C      -1.248134   -2.189402   -0.078638
N      -1.757808   -1.475003    1.114960
C      -1.326761   -0.707809   -0.064241
H       0.662110    1.818321    0.079696
H       0.513512   -1.074986   -1.955353
H       1.862438   -0.142612   -1.233483
H       1.817090   -0.126813    1.290318
H       0.447466   -1.064198    1.980951
H       0.339358   -3.415481   -0.861273
H       0.272455   -3.396454    0.903869
H      -1.969206   -2.745238   -0.673272
H      -2.772955   -1.526703    1.139333
H      -2.070911   -0.190557   -0.663628
