16

C       0.088927    1.490437    0.045988
C      -0.018317    0.002182   -0.025027
C      -0.068164   -0.761587   -1.124024
C      -0.068375   -2.207118   -0.771875
O       1.105161   -2.631720   -0.040735
C      -0.056042   -2.275184    0.711054
C      -0.055807   -0.842240    1.240248
C      -0.676995   -3.331667    1.470196
N      -1.187411   -4.154501    2.101792
H       1.025689    1.793288    0.530208
H       0.059523    1.942697   -0.948296
H      -0.724839    1.917401    0.645068
H      -0.067581   -0.401367   -2.145067
H      -0.517189   -2.973779   -1.394864
H       0.807563   -0.659139    1.889998
H      -0.955406   -0.641923    1.834775
