16

C      -0.076723    1.463673   -0.037579
N      -0.008377    0.007113    0.033517
C      -0.013083   -0.606650    1.287493
N      -0.075171    0.073700    2.358512
C       0.062883   -0.831943   -1.087957
O       0.119087   -2.033946   -1.012785
N       0.061952   -0.129708   -2.302382
C       0.124318   -0.680844   -3.581827
O       0.188979   -1.841710   -3.868395
H       0.813854    1.883155   -0.518601
H      -0.976349    1.796820   -0.566871
H      -0.121924    1.828216    0.988192
H       0.041657   -1.690602    1.197897
H      -0.067439   -0.544357    3.166627
H       0.012516    0.875951   -2.273879
H       0.105287    0.134420   -4.334060
