18

C      -0.005337    1.388746    0.050423
N      -0.015979   -0.049762    0.030188
C       0.054338   -0.948140   -1.002407
O       0.141842   -0.821331   -2.198283
C       0.021964   -2.143415   -0.007937
O       1.148875   -2.981215   -0.009970
C       0.037752   -1.057603    1.079873
C       0.875696   -1.028400    2.312187
C      -0.646588   -1.021821    2.406492
H       0.891093    1.778699    0.548075
H      -0.007108    1.732684   -0.986442
H      -0.890435    1.790287    0.557818
H      -0.918635   -2.710826   -0.046848
H       1.302119   -3.255083   -0.921445
H       1.412288   -1.935859    2.565970
H       1.396253   -0.110476    2.564888
H      -1.122381   -0.096673    2.715997
H      -1.152020   -1.918922    2.748850
