15

C      -0.085701    1.403258    0.135690
N       0.030768   -0.025702   -0.051198
C       0.632610   -0.589092   -1.102823
C       1.253087   -0.086380   -2.203466
C       1.718720   -1.200315   -3.007881
O       2.306930   -1.266311   -4.043579
O       1.342975   -2.413028   -2.327939
C       0.694005   -2.073694   -1.189006
N       0.204819   -2.844108   -0.315113
H       0.901771    1.877515    0.194610
H      -0.640468    1.866697   -0.689433
H      -0.620287    1.600719    1.065662
H      -0.348084   -0.668296    0.628598
H       1.409721    0.939282   -2.494119
H       0.348574   -3.825659   -0.553847
