17

C      -0.060026    1.420257    0.226913
N      -0.193730    0.053425   -0.287731
C      -1.475581   -0.540090    0.012318
C      -1.560193   -2.072475   -0.333297
N      -1.931754   -2.301493    1.066355
C      -1.659241   -0.996287    1.469226
N      -1.567851   -0.375294    2.563224
C      -2.550572   -2.496278   -1.322207
N      -3.318937   -2.827912   -2.119003
H       0.930010    1.801526   -0.036688
H      -0.819368    2.116640   -0.167404
H      -0.151560    1.400636    1.314560
H      -0.068174    0.062105   -1.295948
H      -2.351152    0.016648   -0.359505
H      -0.572489   -2.457726   -0.608652
H      -1.799463   -3.156374    1.588171
H      -1.698012   -0.988345    3.369755
