19

C       0.033034    1.370716   -0.286555
C       1.477443    1.567449    0.204592
C       1.329918    0.142302    0.773646
O      -0.011287    0.027727    0.240501
C       2.197818   -1.068650    0.487110
C       3.193543   -1.200039    1.649209
C       2.938531   -0.033772    2.606029
C       1.437343   -0.237479    2.271741
C       1.783740   -1.709177    1.796415
H      -0.720355    2.017714    0.179331
H      -0.112029    1.385581   -1.373324
H       2.229361    1.672808   -0.579801
H       1.626898    2.351082    0.950831
H       2.367751   -1.548802   -0.468163
H       4.098922   -1.781738    1.528583
H       3.167542   -0.309205    3.639370
H       3.378302    0.946027    2.382428
H       0.644456    0.059517    2.954899
H       1.374599   -2.682656    2.018282
