19

N      -0.328273    1.013799   -0.636621
C      -0.233572   -0.280684   -0.225748
O       0.629733   -1.039356   -0.626332
C      -1.273864   -0.711987    0.825477
N      -1.375981   -2.143817    1.015250
C      -2.145422   -2.856438    0.020826
C      -1.555875   -3.318367   -1.345996
O      -2.035383   -4.662448   -1.120099
C      -2.346481   -4.367238    0.254212
H       0.373958    1.376628   -1.260659
H      -1.027376    1.641339   -0.279738
H      -0.980898   -0.237161    1.773076
H      -2.260415   -0.307353    0.569766
H      -0.435683   -2.527626    1.061046
H      -3.100159   -2.336682   -0.108018
H      -1.976037   -2.881979   -2.259729
H      -0.461619   -3.263169   -1.385892
H      -1.608327   -4.794718    0.949641
H      -3.346229   -4.711436    0.541954
