17

C       0.014994    1.359857   -0.079994
O      -0.002484   -0.041375    0.089662
C      -1.290089   -0.631812    0.002163
C      -1.819009   -0.721832   -1.432388
C      -1.151938   -1.987458    0.640500
N      -2.042622   -2.934485    0.521425
O      -1.571946   -3.986718    1.257093
N      -0.370635   -3.690311    1.835538
C      -0.098893   -2.469279    1.469922
H       1.037150    1.689893    0.118162
H      -0.258413    1.663671   -1.099501
H      -0.664477    1.860049    0.627074
H      -1.998611   -0.040336    0.607533
H      -2.769427   -1.260745   -1.444422
H      -1.981828    0.273859   -1.852380
H      -1.105007   -1.259780   -2.061761
H       0.803849   -1.969348    1.777996
