19

N      -0.381442    1.325278   -0.327892
C      -0.097848    0.008735   -0.031625
O       0.963478   -0.520865   -0.289996
N      -1.146500   -0.648761    0.628842
C      -2.500311   -0.772541    0.087690
C      -1.601801   -1.957607    0.236393
C      -1.084145   -2.851794   -0.898585
C      -1.613352   -4.075311   -0.091718
C      -1.768481   -3.164255    1.163883
H       0.426095    1.888431   -0.544074
H      -1.112424    1.782768    0.193224
H      -3.308402   -0.599745    0.795270
H      -2.677860   -0.396136   -0.918040
H      -1.500595   -2.684255   -1.894898
H       0.005069   -2.816107   -0.958198
H      -2.575351   -4.435450   -0.464076
H      -0.935687   -4.924995    0.004426
H      -0.926072   -3.253875    1.855043
H      -2.700469   -3.235814    1.730055
