19

C      -0.480373    0.057514    0.858275
C       0.391588    0.577102   -0.286677
N       0.772055   -0.519801   -1.174142
C       1.978651   -0.808444   -1.317932
O       3.134306   -0.204030   -0.790786
C       3.963044   -1.026114   -1.651352
C       3.797351   -2.453554   -1.272244
C       2.747844   -1.782365   -2.165271
N       2.437039   -2.301850   -3.444154
H      -1.352410   -0.474134    0.466803
H       0.082120   -0.635441    1.491703
H      -0.828096    0.886467    1.482853
H      -0.188144    1.293318   -0.882159
H       1.262886    1.111474    0.112808
H       4.793938   -0.550716   -2.152778
H       4.414970   -3.157911   -1.821091
H       3.572768   -2.717098   -0.243438
H       1.842822   -3.121464   -3.365734
H       1.930443   -1.616165   -3.995604
