17

N      -0.103582   -1.126875    0.344916
C      -0.082637    0.008928    0.133317
C      -0.029624    1.448634   -0.140959
C       1.382562    1.985272   -0.127284
C       2.077519    2.409556    1.135647
C       1.876266    3.425025    0.041316
C       2.919784    3.215100   -1.062693
C       2.420034    1.741704   -1.233577
H      -0.503874    1.628040   -1.114115
H      -0.641275    1.965365    0.607796
H       1.434947    2.527545    2.002948
H       3.073173    2.038363    1.368530
H       1.301124    4.328742    0.206732
H       2.735130    3.819297   -1.953213
H       3.962967    3.349656   -0.760097
H       3.141311    0.941338   -1.044078
H       1.964685    1.573546   -2.212889
