17

C       0.008446    1.554169    0.026047
C       0.044944    0.014077   -0.005023
C       0.766135   -0.501518   -1.265256
C       0.652240   -0.543655    1.239181
C       0.220066   -1.335733    2.251323
N       1.247860   -1.534615    3.169032
C       2.234973   -0.865137    2.676496
O       1.964994   -0.232980    1.509683
H       1.022149    1.963975    0.070649
H      -0.475681    1.943084   -0.875080
H      -0.542717    1.919302    0.897356
H      -0.987830   -0.354761   -0.023721
H       1.812060   -0.179739   -1.270812
H       0.748172   -1.594136   -1.311996
H       0.285550   -0.110414   -2.167368
H      -0.754258   -1.777716    2.387928
H       3.232021   -0.747858    3.071222
