19

C      -0.067358    1.348797    0.103077
O       0.017092   -0.076662   -0.021158
C       0.647986   -0.521426   -1.128785
O       1.113133    0.206611   -1.964002
C       0.673251   -2.062247   -1.146291
C       1.426893   -2.571715    0.109725
C      -0.783622   -2.593829   -1.140131
C       1.360250   -2.524909   -2.353139
C       1.912080   -2.972733   -3.321192
H       0.931035    1.792071    0.133923
H      -0.614545    1.776721   -0.740542
H      -0.597689    1.534101    1.037174
H       0.919565   -2.235865    1.016358
H       1.455743   -3.664232    0.099522
H       2.456153   -2.203771    0.122391
H      -1.330532   -2.241638   -2.018636
H      -0.773185   -3.686530   -1.160769
H      -1.304062   -2.258130   -0.240906
H       2.405193   -3.340408   -4.186780
