19

O      -0.249921    1.343297   -0.220324
C      -0.057413   -0.036425   -0.050142
C      -0.315688   -0.618320    1.336774
C      -1.323934   -0.808400    0.245765
C      -2.725397   -0.200738    0.106279
C      -3.078067   -1.359565   -0.874189
C      -1.765069   -2.092620   -0.464739
C       0.960874   -0.624742   -0.879652
C       1.822041   -1.099609   -1.573574
H       0.564817    1.788159    0.038848
H       0.280768   -1.468339    1.652342
H      -0.541500    0.109613    2.110070
H      -3.295267   -0.241410    1.039757
H      -2.766410    0.816285   -0.287026
H      -4.011350   -1.892294   -0.681369
H      -3.069894   -1.039989   -1.918776
H      -1.116687   -2.444339   -1.270908
H      -1.937319   -2.918304    0.232674
H       2.579796   -1.517898   -2.188687
