17

O       0.020317    1.371101    0.020361
C      -0.024015   -0.011615    0.069745
C       0.698780   -0.743429    1.231780
C       0.434745   -2.167346    0.736907
C      -0.870653   -2.151876   -0.002416
C      -1.405224   -0.718483    0.040459
C       0.444486   -2.140139   -0.801981
C       0.648115   -0.707515   -1.132359
O       1.176578   -0.132848   -2.050988
H       0.488001    1.591100   -0.801296
H       1.761610   -0.486488    1.274795
H       0.242980   -0.538877    2.205540
H       0.789375   -3.046652    1.258115
H      -1.515696   -3.019340   -0.047430
H      -2.002004   -0.512308    0.934411
H      -1.984138   -0.442000   -0.846047
H       0.779912   -2.966278   -1.411212
