14

C       0.101666    1.515776    0.008605
C      -0.059067    0.041050    0.001495
C      -1.136935   -0.808368    0.002775
C      -0.652962   -2.154180   -0.006958
C       0.693356   -2.036002   -0.013842
O       1.060353   -0.713948   -0.008632
N      -2.510897   -0.411400    0.012312
O      -3.354643   -1.302116    0.011498
O      -2.757740    0.794640    0.020450
H       1.163688    1.768241    0.000530
H      -0.388191    1.963124   -0.860751
H      -0.372108    1.953053    0.891965
H      -1.249379   -3.050185   -0.008462
H       1.506836   -2.741041   -0.022152
