17

C       0.184463    1.417025   -0.290875
N      -0.138513    0.030138    0.064281
C       0.553980   -0.466088    1.184253
C       2.020859   -0.946550    1.073186
O       3.076840   -0.491990    1.841790
C       0.999629   -1.891869    1.572721
O       0.775520   -1.592633    2.979747
C       0.226182   -0.341904    2.640909
N      -0.390177    0.484953    3.349467
H       1.249901    1.486785   -0.529518
H      -0.381173    1.693968   -1.184751
H      -0.036447    2.140675    0.506137
H      -1.139759   -0.076100    0.188968
H       2.301510   -1.071502    0.031182
H       2.886549   -0.732111    2.757988
H       0.706291   -2.872310    1.222101
H      -0.459860    0.177526    4.320754
