20

C       0.261310    1.411212   -0.334154
C      -0.155693    0.038159    0.187491
O      -0.129333   -0.966519   -0.858551
C       1.146771   -1.631707   -0.869006
C       1.596239   -1.583797    0.566955
C       2.875325   -1.098129    1.273498
C       2.014106    0.006138    1.988087
C       0.780049   -0.528582    1.232269
N       0.614855   -1.945448    1.606217
H       1.295694    1.406939   -0.692422
H      -0.386837    1.702808   -1.164381
H       0.176472    2.167136    0.453377
H      -1.203276    0.075275    0.510693
H       0.968811   -2.629168   -1.285217
H       1.875339   -1.116381   -1.513962
H       3.364581   -1.835219    1.913406
H       3.606519   -0.674349    0.581144
H       1.944910   -0.053517    3.076135
H       2.301236    1.018041    1.697256
H      -0.217960   -2.291985    1.131054
