15

O       0.036888   -0.009408   -0.394995
C       0.053037    1.193792   -0.124133
O       0.964446    2.030610    0.069509
C      -1.332772    1.867353    0.030178
C      -2.567517    1.368297   -0.009206
C      -3.623115    2.401274    0.259967
N      -2.830310    3.701630    0.113131
H      -2.943577    4.048518   -0.838529
H      -3.157021    4.431300    0.746681
C      -1.340910    3.336349    0.321860
H      -2.800164    0.326547   -0.183017
H      -4.465007    2.428083   -0.439026
H      -4.030334    2.380550    1.279178
H      -1.075236    3.578350    1.354254
H      -0.719341    3.927221   -0.349270
