20

C      -0.030392    1.436414   -0.300656
C       0.081590   -0.035240    0.034488
C       1.412776   -0.754362    0.012563
C       0.685368   -0.559350    1.322353
C       1.259146    0.388632    2.357180
C       0.003842   -1.791690    1.925491
C       0.911479   -2.653790    2.678814
C       1.671376   -3.352922    3.294713
H       0.844941    2.002554    0.028967
H      -0.118905    1.576893   -1.383738
H      -0.913463    1.889072    0.164586
H      -0.758945   -0.620508   -0.333745
H       1.465196   -1.751841   -0.411694
H       2.302498   -0.156080   -0.159267
H       1.794849    1.222400    1.897956
H       0.469799    0.807380    2.993497
H       1.963072   -0.141511    3.006853
H      -0.815643   -1.469228    2.583229
H      -0.463021   -2.378368    1.124583
H       2.336027   -3.977242    3.838342
