17

C       0.055568    1.478441    0.051306
N      -0.010562    0.036465    0.083833
C      -1.123252   -0.562916    0.020541
C      -2.516849   -0.073759   -0.091682
C      -3.369497   -1.098328   -0.125464
C      -2.637681   -2.402987   -0.039857
N      -1.239411   -1.983554    0.049540
C      -0.232232   -2.923263    0.145073
O       0.951142   -2.722128    0.222665
H       0.683933    1.788209   -0.792292
H      -0.906723    2.004578   -0.031501
H       0.558470    1.833100    0.958816
H      -2.774946    0.973314   -0.137167
H      -4.447376   -1.045777   -0.203916
H      -2.942611   -2.987202    0.839836
H      -2.816653   -3.032254   -0.923147
H      -0.668838   -3.945266    0.141409
