15

C      -0.053615    1.555448   -0.054995
C       0.025346    0.031035    0.010675
O       0.781198   -0.468901   -1.100791
C       1.837098   -1.224932   -0.669103
O       2.612341   -1.749269   -1.411480
C       1.792821   -1.236800    0.832851
C       0.734872   -0.509135    1.216459
C       2.747016   -1.923356    1.613019
C       3.570235   -2.515431    2.260763
H       0.945882    1.993234    0.010667
H      -0.513236    1.864603   -0.996789
H      -0.661138    1.937301    0.771122
H      -0.987063   -0.391050   -0.064282
H       0.412240   -0.311957    2.230011
H       4.299404   -3.041087    2.826580
