17

C      -0.055185    1.460026   -0.246158
N      -0.102530    0.030062    0.013727
C       0.563048   -0.538931    1.041324
N       0.763047   -1.819375    1.173816
H       0.460424   -2.463728    0.444275
C       1.356886   -2.539720    2.213345
C       1.906747   -2.159692    3.441733
C       2.310854   -3.398431    3.939473
N       2.017657   -4.404387    3.075244
N       1.425407   -3.870383    2.003346
H       0.805932    1.748913   -0.861805
H      -0.971908    1.766439   -0.754389
H       0.000133    1.997383    0.703713
H      -0.386167   -0.563870   -0.751613
H       0.921055    0.114721    1.827250
H       1.995474   -1.183651    3.893224
H       2.797356   -3.611196    4.882376
