11

N       0.262804    1.292539    0.004969
C       0.037115    0.048270    0.001761
N      -1.245349   -0.506376    0.010806
C      -2.473971    0.139287    0.026651
O      -2.665464    1.324781    0.035774
C      -3.634461   -0.881462    0.031827
O      -4.780639   -0.541630    0.045101
H       1.267476    1.462308   -0.003411
H       0.796379   -0.743810   -0.008672
H      -1.273916   -1.514681    0.005458
H      -3.340823   -1.959665    0.022156
