19

C      -0.000600    1.475463    0.073008
C      -0.020626   -0.029848   -0.014997
C       0.787622   -0.688206   -1.167455
O       1.092510   -1.987852   -0.634781
C       0.508671   -1.971684    0.670994
O       0.660835   -0.636394    1.106625
C      -1.000910   -2.133891    0.499653
C      -1.873791   -1.239143    1.340958
C      -1.377905   -0.749529    0.005590
H       1.026631    1.845012    0.141320
H      -0.467708    1.913580   -0.814584
H      -0.554108    1.815851    0.952290
H       0.208885   -0.779238   -2.093352
H       1.720170   -0.148674   -1.371895
H       1.045427   -2.663960    1.319069
H      -1.381236   -3.041534    0.049292
H      -2.924081   -1.505139    1.389467
H      -1.466437   -0.808897    2.248419
H      -2.061993   -0.599565   -0.821018
