15

N      -0.020431    1.609948   -0.059613
C       0.035244    0.351365   -0.098419
N      -1.081268   -0.482982   -0.081983
C      -2.423169   -0.137498   -0.022887
O      -2.885290    0.967947    0.026211
O       1.128205   -0.476961   -0.162570
C       2.406884    0.128753   -0.191536
C       3.441656   -0.984443   -0.261731
O       4.621982   -0.772475   -0.298779
H       0.895042    2.048762   -0.080270
H      -0.867748   -1.467995   -0.118509
H      -3.039362   -1.059793   -0.027256
H       2.522934    0.782405   -1.066757
H       2.587698    0.730588    0.709488
H       3.009429   -2.008093   -0.275617
