17

C       0.010399    1.564453   -0.121434
C      -0.122958    0.049001   -0.253595
C      -1.441753   -0.496176    0.245168
N      -2.337454    0.269011    0.710960
N      -1.639604   -1.916867    0.068786
C      -2.837387   -2.331086   -0.566842
O      -3.200249   -3.460721   -0.714722
C      -0.663265   -2.830261    0.522578
O      -0.688544   -4.016735    0.367172
H       0.983582    1.888335   -0.500324
H      -0.772885    2.076684   -0.684283
H      -0.079909    1.876862    0.921377
H      -0.010493   -0.268405   -1.298990
H       0.697482   -0.447445    0.280533
H      -3.162250   -0.245154    1.023097
H      -3.400663   -1.450217   -0.925993
H       0.139834   -2.309560    1.073664
