16

O      -0.149928    1.345153   -0.014514
N       0.007506   -0.062275    0.009204
C      -1.112374   -0.644740    0.012777
C      -2.621612   -0.414910    0.001099
C      -2.637638   -1.590560   -1.044905
O      -2.234265   -1.375619   -2.358110
C      -1.606181   -2.082347    0.033560
C      -2.648837   -1.555927    1.084555
O      -2.259261   -1.298325    2.394245
H       0.765261    1.646098   -0.014590
H      -3.172212    0.521472   -0.017025
H      -3.570563   -2.156770   -1.084308
H      -1.397660   -0.893474   -2.354206
H      -1.027476   -3.002854    0.051575
H      -3.582224   -2.120713    1.132536
H      -1.422566   -0.816442    2.383463
