18

O       0.026711   -0.065123    0.062939
C      -0.007242    1.151090    0.024783
N      -1.162311    1.886530    0.004158
C      -1.079405    3.340769   -0.041673
C      -0.219764    3.740236   -1.266882
C       1.168940    3.332895   -0.799839
C       1.172223    3.380172    0.705696
C      -0.214492    3.816199    1.152307
C       1.208481    2.028840   -0.005463
H      -2.041524    1.395647    0.021595
H      -2.085413    3.759669   -0.052637
H      -0.552520    3.230232   -2.175114
H      -0.263953    4.822046   -1.436322
H       2.040959    3.594508   -1.386573
H       2.046753    3.677963    1.271057
H      -0.258089    4.906515    1.253730
H      -0.543218    3.364230    2.092189
H       2.140624    1.478999    0.009771
