21

C       0.013117    1.519328    0.001447
C       0.006029    0.018589    0.000975
C      -0.052623   -0.724656   -1.107707
C      -0.026161   -2.233494   -1.010492
C       0.111045   -2.621578    0.466763
C       1.226991   -1.824708    1.172743
C       0.088456   -0.777100    1.312969
C      -0.065515    0.003896    2.596535
O      -0.882699   -1.876993    1.224191
H       0.929310    1.923523    0.451044
H      -0.056920    1.907613   -1.018503
H      -0.823517    1.931710    0.578111
H      -0.125901   -0.266360   -2.090999
H      -0.947376   -2.664880   -1.424594
H       0.803747   -2.652077   -1.596881
H       0.039644   -3.699046    0.638423
H       1.490948   -2.269520    2.134891
H       2.121522   -1.547457    0.611841
H       0.724623    0.754456    2.699611
H      -1.031676    0.517632    2.629278
H      -0.013003   -0.676325    3.450312
