20

C      -0.105306    1.538931    0.059272
C      -0.013966    0.026080    0.004859
C      -1.245571   -0.643284   -0.577533
C       1.317129   -0.638368   -0.278601
N       2.494565    0.170806   -0.428630
C       0.725871   -0.671200    1.151976
N       1.343943    0.145038    2.181145
C       0.225733   -1.934436    1.625488
N      -0.163039   -2.954384    2.011817
H       0.788511    1.999644    0.477913
H      -0.264502    1.942743   -0.947516
H      -0.957035    1.841212    0.676670
H      -1.404066   -0.313076   -1.610654
H      -1.161220   -1.732795   -0.580008
H      -2.138533   -0.381263   -0.000071
H       1.266302   -1.575511   -0.832934
H       3.324757   -0.407402   -0.496590
H       2.448478    0.742572   -1.265246
H       1.664079   -0.453163    2.935801
H       2.170972    0.573301    1.764955
