17

C      -0.044161    1.612211   -0.014273
C       0.082559    0.078568    0.031268
C      -1.067275   -0.595343   -0.534668
C      -2.028385   -1.143114   -1.007564
C       1.349869   -0.745950   -0.207058
C       2.633280   -0.158083    0.457328
O       2.321679    1.068071    1.130007
C       1.995386   -0.171836    1.769694
C       0.684924   -0.760282    1.160960
H       0.758807    2.062185   -0.598126
H      -0.998597    1.877145   -0.475562
H      -0.011119    2.045579    0.985340
H      -2.879254   -1.620470   -1.426154
H       1.373501   -1.534704   -0.947025
H       3.657673   -0.316172    0.143125
H       2.382525   -0.343670    2.766535
H       0.124191   -1.561627    1.623200
