23

C      -0.153529    1.589792   -0.095868
C       0.016910    0.066190    0.009275
C       0.774310   -0.482648   -1.211809
O       2.128906   -0.066009   -1.233791
C       2.849244   -0.555957   -0.113065
C       2.253449   -0.066142    1.206920
C       0.757198   -0.415443    1.280956
C       0.116817    0.065877    2.579648
O       0.719925   -0.650367    3.650404
H       0.812827    2.095739   -0.167312
H      -0.722293    1.844523   -0.996638
H      -0.695481    2.003347    0.759634
H      -0.982645   -0.390784    0.005105
H       0.720640   -1.585593   -1.216139
H       0.328689   -0.119480   -2.143595
H       2.858481   -1.660380   -0.130840
H       3.879900   -0.211204   -0.238872
H       2.781444   -0.518546    2.051658
H       2.391626    1.019614    1.283345
H       0.677972   -1.512711    1.297725
H       0.266754    1.149617    2.701328
H      -0.970615   -0.115168    2.545730
H       0.399820   -0.281341    4.478295
