24

C      -0.083217    1.541595    0.186495
C       0.037098    0.019358    0.053662
C       0.719184   -0.514943   -1.232192
C       0.765577   -2.053597   -1.152719
C      -0.005701   -0.058449   -2.523260
C      -1.480050   -0.458242   -2.651833
C       2.164047    0.008428   -1.328243
O       2.868415   -0.324233   -0.138400
H       0.898311    2.025067    0.206439
H      -0.661591    1.987882   -0.629001
H      -0.589082    1.800105    1.122354
H       0.602085   -0.362822    0.909478
H      -0.961692   -0.427086    0.124799
H      -0.228100   -2.480006   -0.985838
H       1.163760   -2.483925   -2.079187
H       1.411441   -2.370078   -0.329964
H       0.072316    1.032464   -2.611434
H       0.544424   -0.465131   -3.382681
H      -1.614356   -1.543590   -2.617530
H      -2.093517   -0.021951   -1.857504
H      -1.885542   -0.108560   -3.606583
H       2.648316   -0.443446   -2.208988
H       2.156086    1.098029   -1.484117
H       3.776880   -0.025615   -0.233409
