23

C       0.009629    1.616444   -0.015866
C      -0.007256    0.105687    0.064176
C       1.245818   -0.699746   -0.186526
C       0.659163   -0.634897    1.200889
C       1.360408    0.104808    2.345373
C       1.353536   -0.947867    3.462645
O       0.165816   -1.692665    3.254449
C       0.049675   -1.900933    1.848267
C      -1.403281   -2.214398    1.533536
H       0.963075    2.027952    0.329478
H      -0.140048    1.953421   -1.047529
H      -0.783910    2.060553    0.596096
H      -0.925068   -0.340247   -0.310015
H       1.157751   -1.633433   -0.735732
H       2.169619   -0.160389   -0.376801
H       2.369895    0.439798    2.091769
H       0.783125    0.982245    2.655973
H       2.240294   -1.599900    3.388413
H       1.318187   -0.528150    4.471186
H       0.674051   -2.767941    1.565912
H      -2.044539   -1.361913    1.774796
H      -1.531939   -2.463924    0.475721
H      -1.731264   -3.073668    2.125076
