21

C      -0.024063    1.707095    0.128886
C      -0.063281    0.193847    0.031165
C      -1.373324   -0.404623   -0.457251
C      -1.727096   -0.031836   -1.895263
O      -2.905518   -0.746132   -2.238961
C       1.208299   -0.528285   -0.324239
C       0.674616   -0.618007    1.100791
C       1.373254    0.009986    2.182495
C       1.954204    0.527469    3.101005
H       0.899217    2.048854    0.602195
H      -0.087498    2.170645   -0.861300
H      -0.861806    2.081341    0.728350
H      -1.328706   -1.498597   -0.403170
H      -2.195943   -0.091627    0.197764
H      -1.884681    1.053955   -1.981672
H      -0.889678   -0.295054   -2.561796
H      -3.161692   -0.492761   -3.130378
H       1.150368   -1.426641   -0.929981
H       2.107317    0.059462   -0.472031
H       0.204992   -1.562012    1.363983
H       2.467304    0.981641    3.911727
