18

C      -0.400996    1.622254   -0.282531
C       0.105777    0.213687   -0.034558
C       0.874228   -0.524764   -1.200127
C       2.023357   -0.616219   -0.211433
C       3.113589   -1.212579    0.383083
O       4.080167   -2.030128   -0.133265
C       3.090571   -0.800310    1.751926
C       1.963414   -0.020051    1.965921
N       1.363310    0.115295    0.748468
H       0.386900    2.247295   -0.713154
H      -1.248717    1.601751   -0.975491
H      -0.738796    2.088200    0.648830
H      -0.681476   -0.416114    0.393993
H       0.419191   -1.471926   -1.504121
H       1.036927    0.091352   -2.090742
H       3.919329   -2.138049   -1.074916
H       3.853670   -1.029927    2.480373
H       1.617296    0.481003    2.855729
