20

C       0.256782    1.402800    0.172866
C       0.110598   -0.045888    0.167450
C      -0.007658   -1.246755    0.152714
C      -0.112530   -2.682162    0.114491
C      -0.796625   -3.414535    1.243020
C      -1.309527   -2.644870    2.445495
O      -0.250636   -2.337166    3.339405
N      -1.400172   -3.374944   -0.081230
C      -2.605803   -2.596000   -0.337864
H       1.292065    1.693763    0.382139
H      -0.019113    1.834655   -0.795499
H      -0.377887    1.865313    0.936606
H       0.719546   -3.177257   -0.382603
H      -0.384458   -4.389189    1.502853
H      -1.844134   -1.739578    2.134693
H      -2.011087   -3.266388    3.011858
H       0.337215   -1.733444    2.870845
H      -2.598493   -1.577185    0.070266
H      -2.739105   -2.520386   -1.421588
H      -3.465723   -3.135379    0.071083
