13

O       0.143429    1.327567    0.489825
C      -0.004314    0.075182   -0.142502
C      -1.414507   -0.486609   -0.009205
C      -1.603461   -1.951704    0.219335
N      -1.875235   -0.998714    1.293764
C      -2.405796    0.266793   -0.752402
N      -3.141048    0.904612   -1.376527
H      -0.386930    1.974471    0.010680
H       0.274474    0.113993   -1.205782
H       0.690159   -0.606039    0.361101
H      -2.479082   -2.447296   -0.187173
H      -0.702634   -2.559735    0.253355
H      -1.104300   -0.950791    1.956730
