23

C      -0.147712    1.566464    0.063819
C       0.052997    0.056651    0.008080
C       1.128032   -0.543738   -0.962637
C       1.765468   -1.282385    0.220922
C       2.319896   -2.669082    0.173776
O       3.593680   -2.627638   -0.465342
C       2.201811   -0.267565    1.244676
C       0.747006   -0.654932    1.188156
C       0.014452   -1.240889    2.363459
H       0.792675    2.092980    0.256195
H      -0.549643    1.943441   -0.883321
H      -0.852335    1.843966    0.855974
H      -0.912457   -0.426584   -0.181469
H       0.696337   -1.210572   -1.713753
H       1.777320    0.176623   -1.471519
H       2.403718   -3.069486    1.197836
H       1.630564   -3.328896   -0.378807
H       3.897147   -3.533440   -0.580035
H       2.749129   -0.672240    2.091262
H       2.547585    0.714397    0.930530
H      -0.368595   -0.451502    3.022309
H      -0.842566   -1.845153    2.042682
H       0.666924   -1.878840    2.968726
