20

C      -0.035480    1.516859   -0.063538
C      -0.018155    0.006579    0.003740
N      -0.057038   -0.615242   -1.183561
C      -0.043018   -1.947482   -1.197253
C       0.010815   -2.721864   -0.047406
C       0.051521   -2.091066    1.194635
C       0.111324   -2.901792    2.463696
C       0.035733   -0.686789    1.227123
C       0.078996    0.035574    2.552105
H       0.855366    1.958142    0.397470
H      -0.070045    1.818599   -1.110805
H      -0.906807    1.939959    0.449254
H      -0.075960   -2.417979   -2.177657
H       0.021143   -3.805055   -0.115320
H       1.004723   -2.662686    3.052185
H      -0.751379   -2.701405    3.109888
H       0.127238   -3.972330    2.246331
H       1.008367   -0.178624    3.094306
H       0.009633    1.116814    2.435667
H      -0.742490   -0.280036    3.206089
