19

C       0.058126    1.521906   -0.164569
C       0.017118   -0.006089   -0.012883
C       0.801080   -0.433262    1.214264
O       1.661086   -1.275200    1.228947
C      -1.421550   -0.528281    0.118713
C      -2.330679   -0.414023   -1.148931
C      -2.673868   -1.903751   -0.971528
O      -3.494148   -2.623978   -1.458480
C      -1.617989   -2.079672    0.129858
H       1.080843    1.879620   -0.315941
H      -0.541499    1.840485   -1.022173
H      -0.345136    2.017077    0.726136
H       0.492397   -0.487014   -0.876139
H       0.501018    0.097074    2.150688
H      -1.903726   -0.064758    0.985640
H      -3.175955    0.277839   -1.116930
H      -1.770331   -0.234867   -2.073810
H      -0.738630   -2.631500   -0.220444
H      -1.968150   -2.545947    1.054141
