15

O      -0.263523    1.491230    0.501241
C      -0.077424    0.128600    0.298104
C      -0.704569   -0.879081    1.241321
C      -1.227093   -0.715597   -0.164579
O      -2.422872    0.038501   -0.303539
C      -3.497434   -0.580386   -0.802610
O      -3.564854   -1.729794   -1.151963
C      -4.696423    0.368287   -0.904316
O      -4.672102    1.523374   -0.585700
H      -1.165408    1.713497    0.239368
H       0.905005   -0.094365   -0.107946
H      -0.175040   -1.793617    1.484380
H      -1.319781   -0.468487    2.034471
H      -1.124869   -1.499629   -0.903559
H      -5.588917   -0.146494   -1.310668
