19

C      -0.083333    1.594878    0.106897
C       1.424023    1.246409    0.046141
O       1.165341    0.156913    1.015196
C       0.072354    0.057941    0.020653
C       1.134057    0.241759   -1.109812
C       0.745017    0.688499   -2.534124
C       1.829222    0.047395   -3.414623
C       2.171301   -1.200612   -2.600688
O       2.080789   -0.791954   -1.241533
H      -0.407829    1.944033    1.086369
H      -0.549678    2.139111   -0.717160
H       2.296774    1.877465    0.219113
H      -0.669746   -0.729213    0.161803
H      -0.243302    0.292318   -2.792819
H       0.700147    1.773901   -2.639205
H       1.489169   -0.175935   -4.428589
H       2.704963    0.700714   -3.482830
H       1.457947   -2.014197   -2.809008
H       3.182031   -1.581918   -2.769609
