17

O      -0.067069    1.454242   -0.023180
C       0.033123    0.040085    0.036950
C      -1.383241   -0.519074   -0.026230
C      -1.405718   -2.057223    0.032006
O      -0.775204   -2.561953    1.208754
C      -2.768465   -2.572475   -0.111102
C      -3.903742   -2.985054   -0.193053
C      -5.178504   -3.450893   -0.288755
C      -6.309926   -3.864053   -0.373115
H       0.815871    1.821462    0.077097
H       0.623980   -0.356202   -0.806056
H       0.519297   -0.296101    0.962875
H      -1.972204   -0.114167    0.805203
H      -1.866551   -0.184844   -0.950512
H      -0.794975   -2.449592   -0.792060
H      -1.359322   -2.376041    1.953041
H      -7.304769   -4.227244   -0.448745
