19

C      -0.264810    1.534095   -0.034121
C      -0.771606    0.166899   -0.481722
N      -0.971611   -0.711544    0.672466
C      -1.429036   -2.012495    0.426267
C      -2.572084   -2.414490   -0.234276
N      -3.659278   -1.761809   -0.851059
N      -2.558875   -3.800686   -0.134140
C      -1.456825   -4.153452    0.567682
N      -0.747532   -3.099423    0.919396
H      -0.139108    2.201323   -0.891916
H      -0.963949    1.994584    0.669926
H       0.707542    1.448472    0.464639
H      -1.734459    0.282416   -0.992290
H      -0.076359   -0.268905   -1.219736
H      -0.126680   -0.775221    1.229526
H      -4.009205   -1.003332   -0.275477
H      -3.427018   -1.374786   -1.760745
H      -3.279541   -4.399835   -0.500558
H      -1.208034   -5.180678    0.787664
