20

C      -0.109402    1.504210   -0.025272
C       0.017770   -0.023666    0.055555
C       0.783181   -0.448707    1.309637
O      -1.279619   -0.621548    0.174375
C       0.702392   -0.550673   -1.218040
C       0.770668   -2.091242   -1.444708
N       0.032122   -1.873833   -2.698144
C      -0.201319   -0.541446   -2.479981
O      -0.905102    0.270157   -3.028547
H       0.874648    1.984016   -0.030601
H      -0.630361    1.796000   -0.942445
H      -0.669487    1.873786    0.838556
H       0.283365   -0.058266    2.200564
H       0.819157   -1.538534    1.393404
H       1.807989   -0.066507    1.288866
H      -1.845161   -0.220514   -0.496585
H       1.659736   -0.049228   -1.383550
H       1.766512   -2.521051   -1.581104
H       0.204621   -2.660749   -0.702735
H      -0.469244   -2.524709   -3.285746
