18

C      -0.002760    1.499620   -0.015077
C       0.034244    0.044556   -0.002976
C       0.057930   -1.159822    0.003574
C       0.078216   -2.610027   -0.003671
C       1.037378   -3.185566   -1.052997
C       0.163512   -3.281224    1.417769
N      -1.167208   -3.834550    1.169459
C      -1.348674   -3.277342   -0.067492
O      -2.237157   -3.319126   -0.871525
H       0.695845    1.909361   -0.752833
H      -1.003770    1.867656   -0.265659
H       0.267550    1.913137    0.962879
H       2.056209   -2.825075   -0.885321
H       1.039629   -4.279529   -1.015689
H       0.721802   -2.876528   -2.052513
H       0.953359   -4.032992    1.516525
H       0.210167   -2.573953    2.249601
H      -1.763104   -4.433416    1.721168
