20

C      -0.000783    1.653440   -0.074445
C      -0.000711    0.131903    0.119241
C      -1.392502   -0.496194    0.040482
O      -2.268838    0.010975    1.025014
C      -1.958715   -0.624596   -1.401073
O      -1.679154   -2.037321   -1.415707
C      -1.444333   -2.047219    0.014281
C      -0.265333   -2.906747    0.415524
H       1.020424    2.044521   -0.072695
H      -0.462314    1.940488   -1.025752
H      -0.535407    2.170000    0.731372
H       0.632048   -0.328719   -0.647179
H       0.442747   -0.115468    1.090871
H      -2.250590    0.972744    0.988818
H      -3.034913   -0.411325   -1.449886
H      -1.438580   -0.097216   -2.209373
H      -2.348635   -2.374425    0.547926
H       0.653829   -2.599555   -0.089813
H      -0.108653   -2.858707    1.498284
H      -0.464391   -3.949784    0.149931
