16

C       0.065630    1.588927    0.052994
C      -0.031302    0.058022   -0.062244
C      -1.449726   -0.432545   -0.100115
C      -2.027527   -1.059200   -1.148117
C      -3.398742   -1.471786   -1.077752
N      -4.052013   -2.078596   -1.987349
N      -4.063990   -1.139079    0.172128
N      -3.573650   -0.581396    1.123235
O      -2.110495   -0.170348    1.036405
H       1.112977    1.898655    0.099759
H      -0.396483    2.076109   -0.810736
H      -0.438619    1.942926    0.955209
H       0.475665   -0.294369   -0.965550
H       0.468447   -0.405591    0.796888
H      -1.467703   -1.257340   -2.051531
H      -5.009393   -2.247942   -1.674156
