21

C       0.070009    1.314088   -0.390986
C       0.058500   -0.166268   -0.125709
C       0.590018   -1.300678   -1.036477
C       2.071946   -1.361415   -1.344249
O       2.367936   -0.305571   -2.254397
C       0.045891   -2.033695    0.205911
C       0.512767   -0.908875    1.194003
C      -0.885526   -0.789402    1.830330
C      -1.163007   -1.047354    0.337947
H       1.089790    1.663596   -0.577842
H      -0.525865    1.554390   -1.278518
H      -0.342078    1.876932    0.454196
H       0.010313   -1.449763   -1.956687
H       2.658190   -1.258831   -0.417334
H       2.322490   -2.341864   -1.781520
H       3.301972   -0.354335   -2.477948
H       0.021282   -3.103865    0.420374
H       1.487311   -0.832785    1.678915
H      -1.175680   -1.581605    2.528320
H      -1.169295    0.190453    2.227647
H      -2.116995   -1.137069   -0.185903
