17

O       0.066935    1.199917    1.106434
C       0.042948    0.033782    0.349808
C      -0.627519   -1.220340    0.841254
C      -1.216186   -0.458360   -0.334810
C      -2.495642    0.315966   -0.174226
C      -3.623571   -0.221306    0.618481
O      -2.769261    0.779863    1.172326
C      -2.773915    1.273100   -1.219585
C      -2.983170    2.045411   -2.115854
H      -0.779548    1.280232    1.562974
H       0.973990   -0.067478   -0.198066
H      -0.172883   -2.187288    0.655442
H      -1.150362   -1.138194    1.788926
H      -1.102794   -0.891464   -1.323849
H      -4.635728    0.111791    0.401193
H      -3.525685   -1.214537    1.052264
H      -3.169124    2.738395   -2.899141
