18

C      -0.076287    1.534115    0.042040
C       0.001519    0.026159   -0.016064
C       0.740317   -0.692745   -1.182138
C      -0.341265   -1.775346   -0.973723
C       0.078793   -2.701850    0.157207
O       0.509746   -1.960188    1.316322
C       0.503087   -0.596700    1.289609
O       0.861515    0.016350    2.256306
N      -1.234384   -0.698897   -0.464301
H       0.910926    1.963663    0.231563
H      -0.463558    1.917235   -0.905267
H      -0.736028    1.859823    0.851221
H       0.605813   -0.150168   -2.118620
H       1.786435   -0.970067   -1.041943
H      -0.715902   -2.340473   -1.832223
H      -0.755506   -3.337368    0.478404
H       0.908908   -3.351708   -0.143428
H      -1.856366   -0.985664    0.291334
