21

C       0.083364    1.291328    0.348297
O      -0.018444   -0.009080   -0.206156
C      -1.286202   -0.548328   -0.135456
C      -1.838029   -1.123693    1.139106
C      -1.616079   -2.030472   -0.054302
C      -2.744175   -1.847825   -1.059343
O      -4.012813   -2.188251   -0.537638
C      -2.386340   -0.310636   -1.184147
C      -3.485950    0.713274   -0.933831
H       1.134173    1.583542    0.285349
H      -0.520645    2.021921   -0.207879
H      -0.233708    1.305020    1.400321
H      -1.094957   -1.243510    1.921010
H      -2.843492   -0.917426    1.490641
H      -0.946390   -2.879531   -0.005912
H      -2.553058   -2.379766   -2.000030
H      -4.674495   -1.999536   -1.210800
H      -1.914947   -0.132025   -2.156366
H      -3.973660    0.555634    0.031446
H      -3.088933    1.733608   -0.951941
H      -4.260588    0.653517   -1.708096
