15

O       0.045309    1.396661   -0.219215
C       0.071714    0.011745    0.020224
C      -0.001040   -0.470687    1.488035
O      -1.252500   -1.147579    1.237926
C      -1.318968   -0.652875   -0.112231
C      -2.489566    0.312643   -0.335200
C      -3.778233   -0.370288   -0.263096
N      -4.794831   -0.917322   -0.218170
H       0.941794    1.741124   -0.166669
H       0.846959   -0.486100   -0.573407
H       0.779395   -1.163664    1.821579
H      -0.106762    0.346754    2.212034
H      -1.375899   -1.477337   -0.832248
H      -2.456216    1.113919    0.407676
H      -2.386600    0.783510   -1.319066
