25

C      -0.818983    1.402322    0.155307
C      -0.086131    0.073694   -0.031349
C      -1.049580   -0.943692   -0.658357
C       1.258642    0.126951   -0.822205
C       1.857830   -0.876812    0.189039
O       3.210612   -0.783505    0.565632
C       0.725159   -0.509755    1.207828
C       1.199217    0.571701    2.186243
C       0.119541   -1.669546    1.996621
H      -0.170917    2.187046    0.553846
H      -1.211245    1.756980   -0.804973
H      -1.672530    1.295019    0.835481
H      -1.430448   -0.557359   -1.610601
H      -0.570182   -1.904778   -0.865892
H      -1.912114   -1.134106   -0.010395
H       1.238739   -0.161827   -1.876711
H       1.739620    1.108316   -0.743112
H       1.734194   -1.906744   -0.158431
H       3.391374    0.129978    0.809244
H       1.651897    1.435154    1.686906
H       0.368921    0.949384    2.791295
H       1.947262    0.154867    2.868760
H       0.852608   -2.064735    2.709239
H      -0.758032   -1.351277    2.572345
H      -0.187656   -2.496313    1.350838
