17

C      -0.031214    1.556747    0.078784
C       0.014025    0.063072   -0.005854
C      -0.005484   -0.741707   -1.117449
C      -0.076657   -0.393419   -2.569272
N       0.056495   -2.049641   -0.649374
C       0.062909   -3.218176   -1.419247
O       0.117310   -4.331617   -0.980651
N       0.114532   -2.108193    0.713806
C       0.089032   -0.850801    1.091048
H       0.858697    1.955633    0.578390
H      -0.087211    2.020312   -0.909442
H      -0.900949    1.898203    0.651166
H       0.797567   -0.750511   -3.124690
H      -0.968468   -0.808118   -3.051938
H      -0.116758    0.691424   -2.683925
H       0.010849   -2.981981   -2.495936
H       0.124535   -0.609350    2.145231
