16

O      -0.361777    1.435966   -0.341097
C      -0.106399    0.084585   -0.083970
C      -0.510005   -0.497241    1.250201
C      -1.332716   -0.774794    0.002920
N      -2.584897   -0.120725   -0.179553
C      -3.753995   -0.784141   -0.292554
O      -3.918757   -1.989549   -0.206774
C      -4.941595    0.143164   -0.558742
O      -4.849642    1.339685   -0.658650
H       0.208591    1.968798    0.222253
H       0.769603   -0.321055   -0.587446
H       0.078234   -1.305027    1.671142
H      -0.942898    0.189393    1.969694
H      -1.317012   -1.776122   -0.409979
H      -2.588723    0.881165   -0.322781
H      -5.898638   -0.408137   -0.648795
