19

C      -0.067519    1.542009   -0.046419
C       0.025079    0.025005    0.030358
C       0.896172   -0.634478   -1.142536
C       1.826858   -1.342676   -0.192723
N       3.056495   -2.177264    0.061550
C       2.507872   -1.822860    1.450759
C       2.144283   -0.399280    0.989021
N       0.672106   -0.419050    1.332258
C       1.018994   -1.855995    1.027072
H       0.926855    2.001747   -0.054239
H      -0.585549    1.854871   -0.958482
H      -0.614292    1.933230    0.816009
H      -0.983008   -0.403069    0.018689
H       0.302157   -1.295893   -1.778430
H       1.382480    0.119662   -1.767201
H       2.861955   -3.161825   -0.144353
H       2.999158   -2.164083    2.361319
H       2.764461    0.495828    0.982061
H       0.294351   -2.671999    1.068390
