19

C       0.006110    1.407214   -0.075567
N      -0.186452   -0.026295    0.175187
C       0.666811   -0.625445    1.192386
C       0.366400   -2.134031    1.313452
O       0.161143   -2.694954    0.036539
C       1.675982   -2.654377    1.900698
O       2.700480   -1.799226    1.363120
C       2.161400   -0.647017    0.876415
N       2.824365    0.255049    0.292772
H       1.011550    1.573913   -0.458631
H      -0.725834    1.728584   -0.821658
H      -0.124898    2.023705    0.828898
H      -1.148315   -0.171235    0.470482
H       0.558365   -0.153710    2.187407
H      -0.485828   -2.342328    1.976616
H      -0.049950   -1.944725   -0.544424
H       1.690474   -2.592195    2.995761
H       1.882687   -3.678718    1.586014
H       3.806939   -0.015085    0.220939
