19

C       0.024626    1.566740   -0.010977
C       0.044269    0.048939    0.032452
O       0.765223   -0.454115   -1.112961
C       1.522424   -1.556093   -0.680620
C       2.522749   -1.323788    0.445327
O       2.190196   -0.110372    1.120964
C       0.802952   -0.565412    1.206717
C       1.191252   -1.987409    0.721073
C       0.749633   -3.318539    1.246311
H       1.041753    1.952206    0.084580
H      -0.398699    1.911515   -0.957979
H      -0.589145    1.964513    0.803917
H      -0.984692   -0.350794    0.015576
H       1.743060   -2.277526   -1.459481
H       3.549882   -1.670235    0.485716
H       0.374861   -0.419859    2.200369
H      -0.326483   -3.467919    1.098531
H       1.266736   -4.131859    0.727265
H       0.960380   -3.420051    2.316828
