18

O      -0.072768    1.249673   -0.813338
C       0.034834    0.204847    0.137473
C      -1.290668   -0.493611    0.315199
O      -1.682183   -1.376078   -0.753031
C      -1.479220   -1.934398    0.550732
C      -0.375712   -2.956042    0.693558
C      -0.758857   -4.260317   -0.040156
C       0.268894   -5.290575    0.079843
N       1.093433   -6.092849    0.187893
H      -0.359057    0.849134   -1.642025
H       0.817915   -0.512374   -0.142232
H       0.332062    0.677600    1.079991
H      -2.092520    0.171999    0.639659
H      -2.411823   -2.223020    1.042812
H       0.564310   -2.580782    0.285017
H      -0.211119   -3.165821    1.756138
H      -1.700733   -4.658479    0.355199
H      -0.926141   -4.043771   -1.100633
