18

O       0.117582    1.287377   -0.325252
C       0.042845    0.006183    0.282687
C      -1.368618   -0.508863    0.283819
C      -2.505588   -0.093326    1.231527
C      -3.059150   -1.554925    1.184821
C      -1.925251   -1.939720    0.229153
N      -1.882094   -1.069771   -0.950902
C      -1.193557   -3.218892    0.200104
O      -1.389304   -4.118437    0.982731
H      -0.141237    1.173487   -1.246684
H       0.699557   -0.718857   -0.217920
H       0.400050    0.136488    1.308976
H      -2.150491    0.189065    2.224740
H      -3.155384    0.701865    0.853823
H      -2.979387   -2.071501    2.142006
H      -4.069680   -1.696242    0.789576
H      -2.810513   -0.729697   -1.197041
H      -0.428678   -3.288044   -0.603060
