18

O      -0.108034   -0.051310   -0.214278
C      -0.029934    1.137169   -0.065830
C      -1.260580    2.106747    0.006857
C      -0.750319    3.555432    0.309626
C       0.657379    3.243843    0.788999
C       2.139797    3.700815    0.865364
N       2.249961    2.185233    1.180614
C       1.013753    2.431167    2.063626
C       1.200141    2.044795    0.032612
H      -1.822511    2.035272   -0.928974
H      -1.924415    1.730467    0.791710
H      -0.729345    4.159690   -0.603325
H      -1.377158    4.074807    1.039381
H       2.634718    3.990893   -0.065220
H       2.453438    4.328234    1.703691
H       1.233706    2.988785    2.977796
H       0.457847    1.516979    2.290099
H       1.643742    2.201052   -0.958324
