17

O       0.832671    0.526875   -1.366563
C       0.364362    1.300664   -0.552486
N       0.998921    1.717976    0.571503
C       2.352775    1.285666    0.889465
C       3.432487    2.130512    0.220723
C       4.637428    1.419614   -0.311712
N       3.643852    1.961759   -1.234890
C       3.536951    3.477793    0.727653
C       3.591334    4.582573    1.199591
H      -0.651835    1.727360   -0.646236
H       0.578784    2.450767    1.120315
H       2.475906    1.310329    1.975963
H       2.446227    0.249881    0.553082
H       5.594351    1.932428   -0.309457
H       4.692352    0.344703   -0.153309
H       3.012040    1.234173   -1.568916
H       3.658956    5.566581    1.593242
