14

C      -0.162077    1.578632   -0.062888
N       0.162501    0.153102    0.039647
C       1.376741   -0.520018   -0.303177
C       2.686915    0.170609    0.254623
O       2.325623    1.386487    0.917192
C       2.151144    0.146223    1.609458
C       0.822350   -0.545323    1.098783
H       0.526301    2.100074   -0.731350
H      -1.178910    1.672270   -0.462605
H      -0.122036    2.070734    0.911188
H       1.384777   -1.291707   -1.065856
H       3.698760    0.070111   -0.118078
H       2.635805    0.021751    2.569899
H       0.316313   -1.340486    1.636268
