16

N       0.073166   -3.718253   -0.460176
C       0.040958   -2.563964   -0.332251
C       0.000084   -1.208172   -0.178534
C      -0.038144   -0.008356   -0.037766
C      -0.077102    1.445852    0.128191
C      -0.658944    1.872951    1.514853
C       0.404802    2.848633    2.051557
C       1.668528    2.354333    1.348368
O       1.233871    2.003375    0.035610
H      -0.662742    1.868866   -0.696746
H      -1.646366    2.324586    1.408325
H      -0.756987    1.002302    2.167022
H       0.183040    3.873842    1.740829
H       0.482242    2.828128    3.140962
H       2.449240    3.110650    1.240042
H       2.095607    1.480747    1.864246
