18

C      -0.132131    1.504926    0.012659
C       0.092611    0.016514   -0.042597
C       1.256635   -0.622776   -0.850444
C       1.077732   -1.810517    0.122986
C       0.587069   -0.799358    1.184640
O      -0.035445   -2.605903   -0.312268
C      -1.179437   -1.928946   -0.629885
N      -2.237922   -2.487254   -1.026573
O      -1.140304   -0.581590   -0.500139
H       0.775235    2.010381    0.354453
H      -0.397276    1.888738   -0.976781
H      -0.948225    1.743285    0.700977
H       1.097951   -0.806407   -1.914804
H       2.199842   -0.098278   -0.684413
H       1.888234   -2.507705    0.329152
H       1.418336   -0.304379    1.690895
H      -0.159136   -1.137924    1.905969
H      -2.096589   -3.494222   -1.067451
