19

C       0.462630    1.290283   -0.227771
C      -0.403261    0.152208    0.314781
N       0.211080   -0.535638    1.441994
C       0.644710   -1.824270    1.382025
O       0.556210   -2.520870    0.385214
C       1.238573   -2.355760    2.689410
C       2.033874   -3.645873    2.433549
C       2.515150   -4.250272    3.672384
N       2.890061   -4.715076    4.661782
H       1.425169    0.910632   -0.582199
H      -0.041395    1.785564   -1.063421
H       0.656103    2.047216    0.540394
H      -1.385758    0.534156    0.618230
H      -0.564512   -0.610083   -0.449787
H       0.348975   -0.020988    2.297250
H       1.872571   -1.598925    3.163190
H       0.418420   -2.558286    3.388076
H       1.402742   -4.356884    1.893535
H       2.888342   -3.441437    1.780587
