19

C       0.186399    0.690086    0.691678
O      -0.456395    0.259297   -0.497644
C      -1.532077   -0.627942   -0.306005
C      -1.127969   -2.100958   -0.178767
C      -0.173603   -2.553252   -1.279037
O      -0.518795   -2.275387    1.113934
C      -0.637001   -3.480804    1.698346
N      -0.024214   -3.729480    2.773741
H       0.908536    1.454942    0.395288
H      -0.535891    1.136713    1.391493
H       0.705814   -0.126335    1.204088
H      -2.127578   -0.345547    0.575462
H      -2.170184   -0.534239   -1.193123
H      -2.053776   -2.695750   -0.210599
H       0.108590   -3.601104   -1.143084
H      -0.648901   -2.449845   -2.259594
H       0.728020   -1.937812   -1.268378
H      -1.308490   -4.163849    1.157522
H      -0.247752   -4.670841    3.089700
