19

C       0.733396    0.549128    0.717608
C      -0.389771    0.286471   -0.268069
O      -1.447173    0.872914   -0.175442
C      -0.178757   -0.672157   -1.418083
C      -1.205241   -0.518705   -2.524935
C       1.212707   -1.131439   -1.789096
C       0.279997   -2.126094   -1.140866
C       0.523770   -2.666155    0.163775
C       0.718897   -3.175684    1.236413
H       1.545490    1.089178    0.216888
H       0.344270    1.167966    1.526737
H       1.150829   -0.376348    1.121095
H      -1.155460    0.484311   -2.959547
H      -1.029396   -1.246348   -3.322663
H      -2.216319   -0.655944   -2.135918
H       1.431024   -1.258917   -2.843822
H       2.048111   -0.783839   -1.194109
H      -0.189159   -2.835855   -1.817011
H       0.886456   -3.616417    2.187856
