23

C      -0.007821    1.610124    0.011724
C       0.052516    0.087293   -0.051782
C       1.235244   -0.536740   -0.858340
C       1.397665   -1.605826    0.264804
C       0.632453   -0.624803    1.209452
C       0.642716   -2.885838    0.028186
C      -0.558952   -2.989363   -0.542343
C      -1.380164   -1.865988   -1.133551
C      -1.329910   -0.482754   -0.447519
H       0.942497    2.031361    0.356807
H      -0.228783    2.039640   -0.972848
H      -0.791541    1.946895    0.701314
H       1.045066   -0.893729   -1.873094
H       2.094146    0.140835   -0.883786
H       2.427138   -1.828355    0.554559
H       1.319036    0.029456    1.756524
H      -0.077679   -1.069084    1.911880
H       1.119074   -3.795196    0.388113
H      -0.993297   -3.982095   -0.641483
H      -1.093062   -1.748186   -2.188820
H      -2.430183   -2.179460   -1.167266
H      -1.951870   -0.507169    0.456860
H      -1.819520    0.225223   -1.128327
