19

C       0.089787    1.717458    0.048183
C      -0.033594    0.207112   -0.035286
C       1.023928   -0.682106   -0.762582
C       2.006926   -0.459635    0.420965
C       0.601271   -0.747557    1.028168
N       0.405124   -1.844209    0.007716
C       1.067857   -3.065302    0.191338
N       1.378258   -3.698988   -0.998850
O       1.309245   -3.541399    1.283197
H       1.095209    2.065606    0.295440
H      -0.193729    2.174274   -0.906247
H      -0.592547    2.109009    0.810299
H      -1.054003   -0.092414   -0.288341
H       1.235930   -0.752555   -1.830464
H       2.755250   -1.236804    0.579093
H       2.434753    0.535155    0.552683
H       0.325147   -0.897585    2.070124
H       0.821964   -3.465480   -1.806613
H       1.589115   -4.679833   -0.894428
