17

C      -0.396944    1.516037    0.014718
C       0.127541    0.085020    0.050826
C       0.963659   -0.353361   -1.171606
O       0.736648   -0.030595   -2.306245
C       2.133619   -1.230027   -0.705347
C       1.895152   -1.485527    0.794173
O       3.058820   -1.579510    1.563701
C       1.032826   -0.287940    1.207255
O       1.184282    0.294253    2.253524
H       0.428125    2.231590    0.065895
H      -0.942055    1.686378   -0.916127
H      -1.059976    1.707157    0.861213
H      -0.716529   -0.625080    0.075067
H       2.229246   -2.129575   -1.316709
H       3.057844   -0.650743   -0.825628
H       1.273452   -2.391546    0.911997
H       2.911542   -1.008567    2.333560
