18

C      -0.082197    1.746886    0.308094
C      -0.064986    0.259320    0.015904
C       1.225602   -0.391365   -0.445476
C       0.690239   -0.659053    0.941065
O       1.305433   -0.080662    2.055874
C      -1.354429   -0.264513   -0.548433
C      -1.571781   -0.454820   -1.988809
O      -1.342836   -1.572245   -1.123817
H       0.822388    2.045708    0.839573
H      -0.157462    2.328179   -0.617387
H      -0.937848    2.011326    0.940524
H       1.164474   -1.195113   -1.170592
H       2.095681    0.252285   -0.523070
H       0.253748   -1.642098    1.115298
H       2.142874   -0.533636    2.198462
H      -2.233107   -0.064966    0.069325
H      -2.576350   -0.386447   -2.402951
H      -0.761683   -0.232957   -2.681615
