21

O      -0.028378    1.452541    0.015149
C       0.023594    0.026544    0.019849
C       0.979345   -0.499574    1.103385
C       0.727425   -1.971122    1.470570
C      -0.754881   -2.215163    1.768675
C      -1.480802   -1.114187    2.619096
C      -2.250805   -0.682221    1.370705
C      -1.698164   -1.878921    0.589630
C      -1.398017   -0.483668    0.135356
H       0.866080    1.778236   -0.130310
H       0.389512   -0.329063   -0.960016
H       2.015298   -0.363178    0.768328
H       0.855828    0.132043    1.988568
H       1.039491   -2.628294    0.647529
H       1.344799   -2.240133    2.336119
H      -0.910963   -3.219705    2.167434
H      -2.152631   -1.573571    3.349058
H      -0.874164   -0.366950    3.137969
H      -3.265679   -0.301159    1.378312
H      -2.217127   -2.604785   -0.025131
H      -2.007479   -0.161408   -0.706283
