19

C      -0.015675    1.497812    0.034557
C      -0.009575   -0.002138   -0.058963
C      -0.859285   -0.879860    0.795352
O      -1.806224   -1.795267    0.311099
C       0.635678   -1.051953    0.891510
C       1.354658   -1.676572   -0.339116
O       2.704402   -1.975864   -0.271290
C       0.451133   -2.182482   -1.428024
C       0.700865   -0.689754   -1.263214
H       0.983691    1.909619   -0.147390
H      -0.693578    1.934601   -0.709757
H      -0.342593    1.834005    1.023512
H      -1.228444   -0.324205    1.663255
H      -1.879133   -2.505825    0.958285
H       1.176334   -0.871079    1.814205
H       2.793492   -2.891242    0.018472
H       1.013452   -2.592866   -2.263258
H      -0.516346   -2.626679   -1.245560
H       1.153655   -0.101976   -2.051082
