18

C      -0.064510    1.460129    0.049722
C      -0.018301   -0.024972   -0.017306
C      -0.024736   -0.892616   -1.033225
C       0.043527   -2.268298   -0.356701
C      -0.994105   -2.067563    0.798061
C       0.054704   -0.969599    1.216445
C       1.142101   -1.997552    0.725117
C       0.080715   -0.386666    2.538198
N       0.101940    0.078820    3.596830
H       0.818395    1.865300    0.559209
H      -0.113132    1.894749   -0.952137
H      -0.934930    1.808020    0.619459
H      -0.067461   -0.697939   -2.095413
H       0.051619   -3.161996   -0.977264
H      -1.991177   -1.713654    0.531338
H      -1.041173   -2.900196    1.505402
H       1.291611   -2.823726    1.425764
H       2.093397   -1.579799    0.391851
