14

N       0.226607    1.119223   -0.476942
C      -0.140214   -0.006429    0.357920
C      -1.513895   -0.603555    0.075590
O      -2.291540   -0.219625   -0.755616
O      -1.759494   -1.652188    0.912114
C      -3.016468   -2.308378    0.728757
C      -2.926040   -3.370712   -0.278886
N      -2.861430   -4.217801   -1.060872
H       0.205386    0.837442   -1.452833
H      -0.478159    1.846349   -0.394550
H       0.598047   -0.810039    0.253873
H      -0.113041    0.282111    1.415441
H      -3.278649   -2.743274    1.695501
H      -3.779505   -1.587466    0.424123
