21

C       0.250782    1.404857    0.158784
C      -0.019830   -0.099593    0.007631
C      -1.518219   -0.383322   -0.104738
C       0.809843   -0.706412   -1.171475
N       2.009570   -1.300549   -0.568458
C       1.803227   -1.328695    0.694415
C       2.821669   -1.916671    1.633772
O       3.965537   -2.336549    0.942350
N       0.583255   -0.851860    1.137556
H       1.326239    1.601134    0.211141
H      -0.154711    1.957990   -0.694752
H      -0.219088    1.802550    1.065841
H      -1.932987    0.089251   -1.001457
H      -1.702525   -1.459265   -0.162478
H      -2.063389    0.010391    0.760128
H       0.239338   -1.487548   -1.691204
H       1.079749    0.049188   -1.916544
H       3.086733   -1.164168    2.395588
H       2.354236   -2.755121    2.176016
H       3.764992   -2.180946    0.004894
H       0.545416   -0.426144    2.054377
