21

C      -0.042645    1.407659    0.095641
O      -0.017680    0.001766    0.048614
C       0.670467   -0.576821    1.136100
C       0.610667   -2.095909    0.996000
C       1.374411   -2.853117    2.110793
C       0.506885   -4.091661    2.468411
O       0.476484   -4.400686    3.856651
C      -0.840621   -3.742258    1.879584
C      -0.787071   -2.666098    1.097591
H       0.972276    1.835734    0.073154
H      -0.591359    1.755952   -0.782874
H      -0.549034    1.778539    1.001112
H       1.720554   -0.236112    1.153973
H       0.211385   -0.267770    2.092111
H       1.030260   -2.338143    0.009495
H       2.395883   -3.118389    1.828968
H       1.442026   -2.225907    3.008959
H       0.910323   -5.002232    2.007249
H       0.024436   -3.673882    4.300092
H      -1.719268   -4.345436    2.081504
H      -1.615418   -2.232233    0.549580
