16

C      -0.186308    1.441835    0.089201
N      -0.123785    0.063087   -0.389557
C      -1.189386   -0.778574   -0.117841
C      -1.271004   -2.108091    0.181625
C      -2.674254   -2.412686    0.217249
C      -3.347347   -1.265231   -0.036798
N      -4.706809   -0.963763   -0.093106
O      -2.424652   -0.238255   -0.249732
H       0.703053    1.973439   -0.257356
H      -1.063419    1.931945   -0.337336
H      -0.245037    1.526219    1.185376
H       0.754827   -0.388689   -0.178714
H      -0.445250   -2.781253    0.348444
H      -3.132507   -3.368668    0.415759
H      -4.965444   -0.511147   -0.964403
H      -5.007834   -0.362566    0.668573
