18

C       0.033118   -1.192781   -0.004554
C       0.043565    0.007654    0.001862
C       0.020102    1.463558    0.009685
O       1.342697    1.968743    0.000006
C       1.384597    3.377618    0.006908
C       2.847525    3.801886   -0.004516
C       2.988320    5.335661    0.002135
C       4.383302    5.769573   -0.008571
N       5.490166    6.100746   -0.017326
H       0.031486   -2.254852   -0.010522
H      -0.538452    1.831623   -0.868045
H      -0.521963    1.822349    0.901478
H       0.857255    3.786231   -0.873428
H       0.873779    3.777045    0.901095
H       3.352247    3.377557    0.868317
H       3.335862    3.386679   -0.890952
H       2.485676    5.770281   -0.870201
H       2.502061    5.761156    0.888141
