20

C       0.139138    1.362392   -0.373255
C       0.016016   -0.007795    0.291740
O       0.447452    0.014792    1.650122
C      -1.397724   -0.583995    0.180264
C      -2.459903    0.078622    1.033233
N      -1.739329   -1.019063   -1.178387
C      -1.569441   -2.046938   -0.116808
C      -0.478694   -2.972756   -0.247582
C       0.417114   -3.770151   -0.333856
H       1.174422    1.710762   -0.323458
H      -0.163714    1.303893   -1.421908
H      -0.493670    2.109678    0.122429
H       0.690813   -0.704547   -0.213520
H       0.130621    0.831306    2.049514
H      -2.606558    1.125993    0.745654
H      -3.422359   -0.432103    0.929729
H      -2.177890    0.049994    2.089895
H      -2.731862   -0.885365   -1.360135
H      -2.479897   -2.492442    0.280502
H       1.214860   -4.466651   -0.410721
