23

C       0.095550    1.527585   -0.190264
C       0.015315    0.020296    0.081127
C      -1.398839   -0.523432    0.061503
C      -2.320457   -0.476716   -1.215130
C      -3.113520   -1.550657   -0.399996
C      -1.712461   -2.064012    0.071667
C      -3.533330   -0.719293    0.829424
C      -4.879704   -0.733523    1.465241
C      -2.412827   -0.052325    1.124880
H       1.131549    1.879161   -0.163984
H      -0.315868    1.773223   -1.175020
H      -0.469738    2.098651    0.553595
H       0.615309   -0.515695   -0.665383
H       0.471187   -0.203708    1.055205
H      -2.830918    0.463556   -1.437848
H      -1.836180   -0.880301   -2.111599
H      -3.853971   -2.206080   -0.859879
H      -1.168385   -2.619799   -0.700652
H      -1.661354   -2.581897    1.032996
H      -5.151729   -1.740673    1.807656
H      -4.920696   -0.061212    2.327293
H      -5.661744   -0.426377    0.758375
H      -2.220705    0.652829    1.922765
