19

C       0.670291    0.868334    0.341755
C       0.340829   -0.439630   -0.324129
N       0.170415   -1.559969    0.511673
C       0.260321   -1.674150    1.877032
O       0.516712   -0.792470    2.663517
N       0.184307   -0.676963   -1.563897
C       0.329639    0.354868   -2.578497
C       0.445164   -0.341462   -3.937150
O      -0.651789   -1.200185   -4.162100
H      -0.104700    1.130431    1.065769
H       1.598058    0.788582    0.913102
H       0.759686    1.662408   -0.398113
H      -0.050768   -2.399194   -0.007671
H       0.061335   -2.717948    2.188799
H      -0.562780    0.996442   -2.588054
H       1.205083    0.999773   -2.417486
H       0.451250    0.401379   -4.741795
H       1.401215   -0.889581   -3.977901
H      -0.742042   -1.701433   -3.340542
