25

C      -0.264255    1.171808    0.668094
C      -0.218675   -0.258829    0.125687
C       0.568385   -0.378457   -1.183913
O       1.909543   -0.014581   -0.874510
C       2.728268    0.281227   -1.982346
C       0.473767   -1.765937   -1.818926
C       1.122497   -2.891372   -1.033452
C      -0.789207   -2.069503   -2.589581
C       0.505053   -1.850394   -3.330591
H       0.746981    1.550603    0.834879
H      -0.764945    1.846983   -0.035587
H      -0.809511    1.216836    1.615850
H       0.241043   -0.919125    0.869553
H      -1.233959   -0.632833   -0.047514
H       0.157820    0.351650   -1.905951
H       2.272305    1.045954   -2.631229
H       3.669411    0.674111   -1.587849
H       2.945100   -0.603725   -2.595220
H       0.616041   -3.061864   -0.077294
H       1.087700   -3.829087   -1.596363
H       2.169762   -2.659937   -0.816964
H      -1.187947   -3.076841   -2.533536
H      -1.548946   -1.296968   -2.658611
H       0.611423   -0.931613   -3.897966
H       0.990857   -2.708929   -3.782765
