18

C      -0.005843    1.614978   -0.018674
C       0.031942    0.082282    0.013598
C       0.685014   -0.514941   -1.235235
O       2.115800   -0.345191   -1.271717
C       2.848871   -0.848747   -0.247370
O       4.011359   -1.103755   -0.398188
C       2.139345   -0.996256    1.070850
N       1.891797    0.304467    1.736742
C       0.754053   -0.475916    1.244515
H       1.002154    2.026154   -0.097326
H      -0.596718    1.963698   -0.871670
H      -0.456806    2.014046    0.894495
H      -0.997808   -0.295578    0.031562
H       0.461742   -1.586945   -1.306798
H       0.324624   -0.031870   -2.146578
H       2.500505   -1.823177    1.672730
H       2.000442    0.192793    2.741154
H       0.133776   -0.976123    1.984074
