15

O      -0.001270    1.413249    0.006962
C       0.009485    0.000193    0.001898
C      -1.419209   -0.453174    0.012457
C      -2.566079    0.287620    0.023802
C      -3.619114   -0.671475    0.029784
N      -3.177237   -1.910034    0.022913
N      -1.814899   -1.781664    0.012188
C      -0.980406   -2.905461    0.002280
O      -1.353506   -4.042575    0.002203
H       0.909882    1.720137   -0.000222
H       0.524391   -0.395198   -0.889537
H       0.539530   -0.401442    0.881581
H      -2.631150    1.362085    0.027268
H      -4.684399   -0.487479    0.038954
H       0.083651   -2.607070   -0.005612
