15

O      -0.007457   -0.009054    0.041684
C      -0.040494    1.176474   -0.018139
C      -1.071659    2.326038    0.042239
C      -0.055967    2.991192    1.008770
C       1.010721    2.349804    0.036714
C       0.607597    3.053277   -1.280717
O      -0.839704    3.003225   -1.198708
C       2.396576    2.181080    0.345357
C       3.561355    2.023381    0.598969
H      -2.134065    2.209553    0.234165
H      -0.079471    4.081776    1.035814
H      -0.032827    2.557215    2.009276
H       0.944869    4.094069   -1.325633
H       0.959138    2.516803   -2.167873
H       4.588387    1.880106    0.827500
