16

O       0.095286    1.330484    0.151178
C       0.004288   -0.080452    0.023365
C      -1.471453   -0.446835   -0.053573
N      -2.019262   -0.057119   -1.340187
C      -1.362605   -0.236081   -2.519855
O      -1.865663   -0.127462   -3.619103
N      -0.003783   -0.565414   -2.378860
C       0.758524   -0.518682   -1.224113
N       2.011168   -0.735762   -1.128419
H       1.032905    1.553807    0.119790
H       0.464022   -0.589629    0.878742
H      -1.582478   -1.526300    0.127506
H      -2.004713    0.087495    0.736236
H      -3.007861    0.106203   -1.436944
H       0.458750   -0.702036   -3.266879
H       2.435337   -0.947950   -2.034395
