15

O       0.096743    1.411678   -0.075553
C      -0.051247    0.048244    0.039025
C      -0.415290   -0.744008    1.246726
C      -1.603935   -0.168926    2.055572
O      -2.020979    1.089828    1.485398
C      -2.475015   -0.144138    0.887002
C      -1.372397   -0.724756   -0.029301
C      -1.621266   -1.824078   -0.956202
O      -2.724080   -2.245550   -1.228033
H      -0.602625    1.804539    0.466690
H       0.710696   -0.453888   -0.555907
H       0.153479   -1.601373    1.585583
H      -1.808621   -0.334248    3.105173
H      -3.539116   -0.294533    0.768932
H      -0.703240   -2.262295   -1.410408
