21

C      -0.070572    1.598476    0.085759
C      -0.016837    0.070769    0.010888
C      -1.406504   -0.577190    0.011302
C      -1.366644   -2.113183   -0.053485
C      -0.743613   -2.698211    1.211637
O      -0.095850   -3.712468    1.242148
C      -2.761895   -2.699523   -0.233460
C      -3.087522   -4.100715    0.050327
O      -3.471304   -3.059253    0.958325
H       0.933655    2.032640    0.077978
H      -0.621739    2.017211   -0.763644
H      -0.571479    1.932628    1.000936
H       0.521655   -0.237428   -0.894902
H       0.571633   -0.314927    0.854259
H      -1.960419   -0.272523    0.910180
H      -1.984308   -0.199748   -0.841807
H      -0.750703   -2.439847   -0.901163
H      -0.946554   -2.116278    2.137596
H      -3.374191   -2.176579   -0.970799
H      -3.910043   -4.574349   -0.482802
H      -2.308661   -4.768753    0.411150
