20

C       0.644088    0.189356   -1.299668
C       0.007069    0.072880    0.093068
C       0.032394    1.411603    0.845879
C      -1.421689   -0.423424   -0.042818
C      -1.876047   -1.823201   -0.052531
C      -1.056868   -2.738922    0.855047
C      -1.361734   -1.704843    1.951211
O      -1.101553   -1.583305    3.107337
N      -2.241672   -0.894358    1.126811
H       1.678801    0.537023   -1.223456
H       0.646522   -0.772510   -1.822319
H       0.098003    0.907979   -1.921859
H       0.590167   -0.651101    0.673667
H      -0.405459    1.310796    1.842690
H       1.059141    1.773574    0.956399
H      -0.535420    2.175452    0.302025
H      -2.035842    0.243882   -0.647533
H      -2.663461   -2.170958   -0.710918
H      -1.555339   -3.688627    1.066559
H      -0.010421   -2.931413    0.608051
