19

C       0.131033    1.487828    0.178924
N      -0.105242    0.066383   -0.069912
C       0.633312   -0.483869   -1.197442
C       2.103993   -0.424810   -0.997442
N       3.239164   -0.360822   -0.785939
C       0.183232   -1.933949   -1.501660
C      -1.311456   -1.981695   -1.869038
C       0.975772   -2.524360   -2.658307
O       1.385235   -3.653119   -2.693966
H       1.187777    1.744828    0.349761
H      -0.227689    2.069076   -0.677236
H      -0.446637    1.792446    1.055066
H       0.110002   -0.471002    0.764354
H       0.406496    0.139508   -2.073440
H       0.373660   -2.562597   -0.625283
H      -1.641033   -3.017837   -1.977247
H      -1.902117   -1.491688   -1.093554
H      -1.498715   -1.463504   -2.816871
H       1.110267   -1.833391   -3.524728
