23

C      -0.551089    1.087407   -0.247631
C      -0.057059   -0.312425    0.050175
C       0.681839   -1.196504   -0.929797
C       0.941593   -0.910775   -2.402139
C       1.624996    0.396283   -2.818552
C       3.046462    0.579358   -2.263936
C       3.144943    0.938744   -0.801410
C       2.468514    0.423177    0.228054
C       1.429935   -0.632675    0.259855
H       0.240246    1.733162   -0.633604
H      -1.370382    1.078671   -0.975761
H      -0.932640    1.554927    0.666849
H      -0.724329   -0.858003    0.713679
H       0.433215   -2.248337   -0.797645
H       1.559024   -1.736320   -2.784486
H      -0.015614   -0.990416   -2.935782
H       1.682567    0.395289   -3.914495
H       1.013806    1.263157   -2.550203
H       3.623641   -0.337642   -2.460169
H       3.546694    1.364939   -2.841691
H       3.880700    1.705552   -0.565490
H       2.709746    0.815283    1.216478
H       1.609321   -1.345496    1.063257
