21

C       0.072326    1.454344    0.041726
C       0.025729   -0.000799    0.022379
C      -0.023764   -1.204349    0.001870
C      -0.040262   -2.675379   -0.024570
C      -1.486786   -3.189117   -0.084756
O       0.577280   -3.151861   -1.231805
C       0.725964   -3.205237    1.212566
C       0.844441   -4.724121    1.279382
O       1.741214   -5.024429    2.342323
H       0.925925    1.820245    0.622770
H       0.159716    1.861683   -0.971533
H      -0.836580    1.872495    0.488201
H      -2.001621   -2.740214   -0.936565
H      -1.494665   -4.274672   -0.210783
H      -2.026052   -2.931067    0.830003
H       1.409630   -2.677543   -1.334066
H       1.740006   -2.788960    1.195760
H       0.249984   -2.828494    2.124130
H      -0.140232   -5.181659    1.458964
H       1.216169   -5.100940    0.316495
H       1.838643   -5.979970    2.386709
