21

C      -0.126945    1.622943    0.048595
C      -0.097125    0.090802    0.036462
C       0.734270   -0.512855    1.170404
C       0.792015   -2.076337    1.194516
C       2.317475   -2.315307    1.188202
C       2.877704   -1.947519   -0.197972
O       2.750389   -0.514301   -0.188633
C       2.251767   -0.212110    1.116002
O       2.810444   -1.201928    1.955861
H       0.872547    2.042221   -0.105208
H      -0.771387    2.010142   -0.746508
H      -0.507904    2.006772    1.001839
H      -1.121980   -0.293975    0.109932
H       0.303371   -0.259300   -0.921435
H       0.356911   -0.142617    2.130716
H       0.336543   -2.486295    2.098356
H       0.298406   -2.527219    0.328749
H       2.671535   -3.254410    1.610513
H       3.933089   -2.222364   -0.307866
H       2.301675   -2.375815   -1.025309
H       2.582845    0.783019    1.410872
