18

O      -0.818960    0.956809    0.387781
C       0.286810    0.727538   -0.030952
C       1.446968    1.697166    0.011362
C       1.401251    2.823823    1.070476
C       2.034280    1.748534    1.993678
N       2.600115    1.068762    0.762714
C       3.843739    1.769649    0.370363
C       3.690983    3.281378    0.377031
C       2.508569    3.799122    0.713174
H       0.548093   -0.251471   -0.493018
H       1.690684    1.985903   -1.019629
H       0.444790    3.278469    1.326680
H       2.778700    2.080134    2.720488
H       1.306018    1.089373    2.472403
H       4.641923    1.456594    1.056149
H       4.140594    1.412342   -0.624651
H       4.547505    3.894942    0.113047
H       2.322552    4.867543    0.742242
