19

C      -0.421956    1.543592    0.326356
C      -0.131612    0.052991    0.228918
C       0.278519   -0.501476   -1.142824
N       1.568489    0.113377   -1.493531
C       1.550442   -1.065191   -0.581400
C       2.228900   -2.271918   -0.916281
N       2.784115   -3.256636   -1.168286
C       1.220011   -0.532520    0.827763
C       2.236854    0.392129    1.478628
H       0.372667    2.129683   -0.140541
H      -1.364020    1.786112   -0.177381
H      -0.516216    1.858379    1.370672
H      -0.972034   -0.524101    0.625032
H      -0.359780   -0.926472   -1.908201
H       1.834735   -0.217592   -2.420624
H       0.986445   -1.370524    1.489606
H       2.546229    1.183175    0.792088
H       1.820062    0.856733    2.378076
H       3.128801   -0.168260    1.778088
