12

O      -0.050800   -0.001350    0.003721
N      -0.031016    1.226087    0.006893
O       0.987863    1.914564    0.001863
C      -1.291659    1.906167    0.017152
C      -1.436388    3.278049    0.021792
N      -2.773528    3.517979    0.031282
C      -3.478600    2.331150    0.032850
C      -2.576308    1.300217    0.024207
H      -0.695449    4.058015    0.018919
H      -3.188838    4.434139    0.036416
H      -4.556131    2.328571    0.039994
H      -2.779672    0.243161    0.022815
