20

C      -0.803195    1.207750   -0.026375
C       0.129370    0.007576   -0.060061
C       1.507916    0.148979   -0.788303
C       2.128507   -0.574992    0.383062
N       3.193775   -1.207002    0.637497
O       4.094561   -1.162396   -0.442462
C       0.873719   -0.459050    1.244554
C       0.992904    0.572395    2.365645
O       0.341704   -1.678402    1.728132
H      -0.298966    2.107314    0.341778
H      -1.178058    1.429215   -1.031387
H      -1.670021    1.020700    0.616094
H      -0.397855   -0.870134   -0.443327
H       1.619269   -0.329654   -1.763872
H       1.849780    1.186891   -0.874114
H       4.828118   -1.696415   -0.118853
H       1.378998    1.530162    2.003613
H       0.015959    0.738941    2.828636
H       1.684069    0.206411    3.132378
H       1.028065   -2.106794    2.252192
