16

C       0.041705    1.434915    0.142637
C       0.072277   -0.058201   -0.007231
C      -0.362641   -0.711302   -1.176915
N      -0.329856   -2.023562   -1.294094
C       0.146974   -2.673353   -0.217670
C       0.219120   -4.180450   -0.267795
O       0.729672   -4.745705    0.907152
N       0.567031   -2.100840    0.903049
N       0.531674   -0.773700    1.016020
H       0.653848    1.921179   -0.624546
H      -0.977905    1.821228    0.038232
H       0.424377    1.710392    1.126327
H      -0.741386   -0.141357   -2.023858
H      -0.793870   -4.558508   -0.478420
H       0.834494   -4.458476   -1.138179
H       0.926369   -4.005645    1.500861
