18

C      -0.215122    1.548338   -0.089042
C       0.000248    0.030850   -0.024535
C       0.817625   -0.566847   -1.167161
C       1.808616   -1.246090   -0.589380
C       3.120920   -2.020161   -0.573904
C       3.084566   -1.838440    0.991400
N       1.767008   -1.199245    0.806590
C       0.779531   -0.361535    1.277712
O       0.558291   -0.006088    2.411027
H       0.737566    2.073701   -0.206520
H      -0.857665    1.816305   -0.932861
H      -0.685025    1.893313    0.836023
H      -0.981624   -0.458152    0.050635
H       0.616894   -0.420878   -2.217301
H       3.049569   -3.058122   -0.905290
H       3.957148   -1.538464   -1.083466
H       3.054437   -2.756982    1.581711
H       3.844341   -1.164422    1.396263
