21

C      -0.474491    1.426324   -0.128556
C      -0.072734   -0.040397    0.002685
C       1.095956   -0.475229   -0.930707
C       2.054561   -0.555325    0.291341
O       2.745067   -1.770732    0.518242
C       3.031821    0.599623    0.413787
O       2.913336    1.681498   -0.105189
C       0.809421   -0.431006    1.236614
C       0.856459    0.454334    2.474300
H       0.398822    2.084094   -0.122125
H      -1.002123    1.586888   -1.075149
H      -1.146586    1.732758    0.680242
H      -0.964894   -0.666288   -0.088824
H       0.957353   -1.462972   -1.375643
H       1.384267    0.245238   -1.699615
H       3.370506   -1.908950   -0.202212
H       3.910985    0.351769    1.052092
H       0.581759   -1.460061    1.531978
H       1.104585    1.492091    2.234068
H      -0.115393    0.455209    2.979181
H       1.598452    0.085565    3.190808
