19

C      -0.188980    1.556907   -0.020750
C      -0.042236    0.039755    0.014244
C       0.719216   -0.513899   -1.190591
C       0.831569   -2.046778   -1.188800
C       1.694081   -2.543348   -2.326682
O       1.341839   -3.327629   -3.168577
O       0.695760   -0.335222    1.198150
C       0.008218   -0.759348    2.275172
O       0.534982   -1.042033    3.308519
H       0.794404    2.035929   -0.025321
H      -0.733235    1.867784   -0.917508
H      -0.739128    1.913829    0.854562
H      -1.035489   -0.428996    0.062850
H       0.208032   -0.178240   -2.100061
H       1.720078   -0.064774   -1.202968
H       1.305056   -2.361817   -0.249428
H      -0.149891   -2.525186   -1.261526
H       2.723638   -2.113261   -2.339176
H      -1.082637   -0.823471    2.091594
