19

C      -0.090124    1.550668    0.085444
C       0.134465    0.076181    0.008821
O      -0.753153   -0.785873    0.731147
C       0.655372   -0.915460    0.968182
C       1.238538   -1.803285   -0.148319
C       0.530781   -3.140326   -0.462956
C      -0.355375   -2.800398   -1.643592
C      -0.254014   -1.532197   -2.044984
C       0.700867   -0.754780   -1.191013
H       0.794082    2.096771   -0.259322
H      -0.935758    1.849038   -0.544932
H      -0.311174    1.851901    1.113133
H       0.991250   -0.802780    1.994216
H       2.326475   -1.875402   -0.103031
H       1.240968   -3.939703   -0.709056
H      -0.062356   -3.499064    0.387554
H      -1.006800   -3.540790   -2.097370
H      -0.810424   -1.095698   -2.867260
H       1.469282   -0.199849   -1.738334
