17

C      -1.290617    0.172138   -0.081279
O       0.127316    0.043755   -0.041968
C       0.690591   -0.687419   -1.075269
C       1.709317   -1.740512   -0.646090
C       0.393301   -2.181235   -1.190113
C       1.054197    0.013094   -2.342608
O       1.578759   -0.556289   -3.279909
C       0.818335    1.519996   -2.550665
O      -0.081766    2.170447   -2.093007
H      -1.615145    0.737790   -0.959244
H      -1.781362   -0.809699   -0.068552
H      -1.570774    0.721538    0.819730
H       2.587223   -1.848658   -1.271717
H       1.865794   -1.796016    0.424369
H      -0.342261   -2.568183   -0.494947
H       0.363318   -2.589181   -2.193439
H       1.545528    1.928440   -3.284514
