19

C      -0.295823    1.314731    0.041213
O       0.343021    0.074571   -0.167402
C       0.875478   -0.479138    1.006586
C      -0.075711   -1.275090    1.931375
C      -0.053227   -2.504932    0.971119
O       0.304800   -3.462623    2.007578
C       1.076370   -2.259627    2.334867
C       1.968627   -2.277091    3.533791
C       1.383765   -1.913184    0.836389
H       0.395627    2.060926    0.463210
H      -0.644816    1.668904   -0.931567
H      -1.159304    1.225191    0.717195
H       1.550847    0.233575    1.504034
H      -0.901872   -0.950060    2.563591
H      -0.758997   -2.804650    0.200405
H       2.725686   -3.061111    3.435498
H       2.478136   -1.315088    3.646400
H       1.387294   -2.470283    4.440546
H       2.200647   -2.296160    0.225779
