23

C      -0.571750    1.442652    0.040586
C       0.035379    0.026667    0.018682
C       0.720249   -0.249162   -1.333602
C       1.160354   -1.689264   -1.487747
C       2.450227   -2.057706   -2.183012
C       2.332801   -2.183013   -0.682083
C       3.045834   -1.212128    0.248254
C       2.159126   -0.651540    1.343340
C       0.921297   -0.162889    1.232759
H       0.209149    2.203020   -0.072338
H      -1.290900    1.572746   -0.774835
H      -1.092648    1.639102    0.983310
H      -0.804411   -0.681374    0.116459
H       0.026160    0.013525   -2.142368
H       1.576748    0.426482   -1.443578
H       0.338338   -2.391442   -1.607076
H       2.477653   -2.961234   -2.782655
H       3.062020   -1.249571   -2.573542
H       2.246573   -3.191434   -0.287199
H       3.904002   -1.716381    0.706366
H       3.479914   -0.389684   -0.334723
H       2.597082   -0.650877    2.339911
H       0.451983    0.179503    2.155824
