22

C       0.061844    1.518805   -0.119309
C      -0.005667   -0.005217    0.063166
C       0.871933   -0.441809    1.246963
C      -1.476268   -0.516810    0.119523
C      -2.292075    0.074737    1.270582
O      -2.162705   -0.117022   -1.064733
C      -1.480848   -2.073541    0.199402
C      -2.812831   -2.649668    0.033820
N      -3.860847   -3.121206   -0.085693
H       1.078971    1.821964   -0.386139
H      -0.617874    1.852245   -0.906111
H      -0.202411    2.043557    0.804478
H       0.421707   -0.462544   -0.844295
H       0.488804   -0.051678    2.195733
H       0.956825   -1.528480    1.336719
H       1.885567   -0.048852    1.121405
H      -2.354938    1.159889    1.172267
H      -3.308931   -0.324608    1.246452
H      -1.848046   -0.166246    2.239828
H      -1.671988   -0.439948   -1.829214
H      -0.827672   -2.482636   -0.581926
H      -1.076492   -2.414034    1.157419
