17

C      -0.120090    1.525110    0.036140
C      -0.034821    0.027871   -0.023540
C      -0.037764   -0.656888   -1.178071
C       0.089084   -2.114238   -1.231008
O       0.152158   -2.732877   -2.275905
C       0.159258   -2.863728    0.091703
N       0.326180   -4.126819    0.158663
N      -0.015676   -2.106245    1.224126
C       0.075773   -0.669587    1.300421
H       0.732353    1.945621    0.583476
H      -0.137937    1.963838   -0.963221
H      -1.023666    1.843633    0.570326
H      -0.104823   -0.150436   -2.136392
H       0.377059   -4.483933   -0.797427
H       0.086889   -2.623676    2.084968
H       1.025161   -0.347182    1.766194
H      -0.715207   -0.285843    1.962600
