17

C      -0.080950    1.621743    0.204808
C       0.005784    0.118396    0.304793
C       1.173329   -0.682748   -0.155643
N       2.434654    0.000788   -0.218904
C       2.779565    0.377528    1.065909
N       1.938392    0.097954    1.995700
C       0.838699   -0.588669    1.381784
C       0.218566   -1.697013    2.140385
O      -0.668046   -2.401352    1.714300
H       0.858963    2.108785    0.471258
H      -0.338318    1.921146   -0.816768
H      -0.856101    2.003807    0.875701
H      -0.930027   -0.416592    0.163548
H       1.052132   -1.587603   -0.739884
H       3.139677   -0.281512   -0.881407
H       3.712177    0.905784    1.235097
H       0.652518   -1.840331    3.152874
