18

N      -0.073248   -1.177745   -0.177430
C      -0.054195   -0.025273   -0.085427
C      -0.015927    1.429396    0.036210
C      -0.626800    1.970309    1.370088
C       0.256774    3.172722    1.696952
C       1.740237    2.951115    1.944076
C       2.199897    1.631540    1.321977
C       1.415077    2.019773    0.026968
C       1.242838    3.452886    0.596678
H      -0.571186    1.849965   -0.810516
H      -1.671366    2.259824    1.230610
H      -0.602699    1.208144    2.154013
H      -0.180255    4.013412    2.223795
H       2.259684    3.503253    2.718360
H       3.277115    1.630197    1.141342
H       1.924801    0.692936    1.815208
H       1.939618    1.885524   -0.917665
H       1.385645    4.396015    0.087183
