17

C      -0.372912    1.272752    0.344596
C       0.143757   -0.133088    0.169111
O       1.211023   -0.217084   -0.855888
C       2.137608   -0.607564    0.073423
N       3.380106   -0.766175    0.006196
C       1.147954   -0.700984    1.214761
N       1.505483    0.074633    2.373859
C       0.704274    0.106988    3.472156
O      -0.400433   -0.392558    3.517307
H       0.435830    1.961193    0.603369
H      -0.848004    1.620254   -0.576950
H      -1.113532    1.286970    1.149532
H      -0.653699   -0.833226   -0.089712
H       3.736108   -0.572794   -0.931344
H       0.897188   -1.726528    1.500634
H       2.448327    0.430329    2.423984
H       1.165888    0.652533    4.317339
