15

C      -0.043870    1.516433    0.010329
C       1.440365    1.919324   -0.038011
N       2.203477    1.522664    1.157545
C       2.317683    0.700527   -0.079342
C       1.391573   -0.450613   -0.045539
C       1.259710   -1.795435   -0.038558
O      -0.049681   -2.122622    0.047470
N      -0.826106   -0.951953    0.105619
C       0.047480    0.011925    0.043005
H      -0.544846    1.926868    0.891554
H      -0.580361    1.868428   -0.877095
H       1.719209    2.830671   -0.556037
H       3.028064    2.114712    1.236994
H       3.256954    0.678535   -0.618918
H       1.940151   -2.630830   -0.089423
