20

C      -0.002154    1.374062   -0.103790
O       0.023643   -0.035851   -0.090628
C      -1.266707   -0.617333    0.015249
C      -1.146935   -2.140405   -0.034325
C      -2.532306   -2.768459    0.127031
O      -2.365039   -4.168147    0.288848
C      -0.466900   -2.625858   -1.327508
O       0.915368   -2.343820   -1.375896
H       1.031106    1.720004   -0.178280
H      -0.573786    1.761997   -0.960688
H      -0.447557    1.774673    0.819267
H      -1.742144   -0.293250    0.956085
H      -1.903610   -0.258728   -0.812869
H      -0.528970   -2.468953    0.810418
H      -3.041562   -2.328028    0.999733
H      -3.149009   -2.541645   -0.758998
H      -3.234652   -4.577891    0.296330
H      -0.573796   -3.711640   -1.394448
H      -1.002387   -2.189515   -2.192212
H       1.009281   -1.417270   -1.120261
