19

C      -0.137318    1.452024    0.011833
C       0.050519   -0.060004    0.026999
C       0.869454   -0.588117   -1.155032
C       2.143499   -0.516308   -0.385743
C       1.238327   -0.552485    0.913991
C       1.173592   -2.098179    0.802357
C       1.542518   -1.903387   -0.663408
C       2.067918   -2.882490   -1.613254
O       2.168605   -4.067628   -1.392631
H       0.814309    1.966770   -0.160043
H      -0.830696    1.757732   -0.779000
H      -0.545366    1.802171    0.965943
H      -0.906273   -0.561208    0.219493
H       0.713223   -0.421025   -2.214224
H       3.130188   -0.142836   -0.618508
H       1.461172   -0.059426    1.858345
H       1.985349   -2.594219    1.339337
H       0.221187   -2.579977    1.046687
H       2.392455   -2.448278   -2.589043
