14

N      -0.016114    1.248920   -0.282110
C       0.025891    0.035837   -0.006722
O       1.144123   -0.834001    0.221287
C       0.204516   -1.713087    0.994839
C      -0.754797   -2.987617    0.887067
O      -1.831359   -1.955724    1.093516
C      -0.904229   -1.163155    0.187683
C      -0.943859   -2.024726   -1.085743
C      -0.844414   -3.261568   -0.601756
H       0.916398    1.659150   -0.350299
H       0.254561   -1.383794    2.032291
H      -0.779682   -3.780670    1.632487
H      -1.032092   -1.645119   -2.091938
H      -0.830239   -4.224856   -1.088293
