18

C      -0.038286    1.487323   -0.012040
C      -0.057192   -0.008756   -0.102463
C      -1.001736   -0.864589    0.633998
N       0.424711   -0.915076    1.044670
C       1.133435   -1.784852    0.008592
C       0.641497   -3.205530   -0.001387
O      -0.271966   -3.602332   -0.694675
C       0.719505   -0.823193   -1.148744
O       0.076509   -1.310937   -2.288565
H       0.976096    1.880422   -0.138476
H      -0.668352    1.921835   -0.796664
H      -0.417691    1.827523    0.955699
H      -1.615721   -0.379525    1.386619
H      -1.465772   -1.729803    0.170018
H       2.203586   -1.770491    0.230934
H       1.139060   -3.895149    0.712295
H       1.589210   -0.254949   -1.494024
H      -0.426287   -2.093983   -2.023993
