23

C      -0.041416    1.525150    0.046694
C       0.001132    0.018502   -0.022397
C       0.670428   -0.821687   -1.173644
C       1.676375   -1.398898   -0.156034
C       0.853993   -0.787957    1.022363
C      -0.089800   -1.765853    1.766407
C      -1.511673   -1.535682    1.188176
C      -1.304483   -0.820342   -0.149295
C      -0.645194   -1.637113   -1.308460
H       0.966658    1.956240    0.054650
H      -0.576695    1.951276   -0.809864
H      -0.550834    1.865669    0.957278
H       1.069596   -0.382702   -2.089933
H       1.812540   -2.486366   -0.149644
H       2.660917   -0.931336   -0.249537
H       1.448552   -0.183370    1.711276
H       0.236697   -2.799738    1.611320
H      -0.074478   -1.599806    2.847618
H      -2.080630   -2.466123    1.085779
H      -2.087858   -0.886563    1.858680
H      -2.191276   -0.266463   -0.469505
H      -1.146048   -1.483355   -2.267450
H      -0.553824   -2.716547   -1.145597
