18

C      -0.057558    1.554583    0.131538
C       0.083842    0.067327    0.043151
N      -0.850905   -0.869252    0.711475
C       0.607528   -0.936521    0.997379
C       1.309718   -1.697869   -0.166195
N       0.280959   -2.096771   -1.164102
C       0.798464   -0.707793   -1.141318
C       1.429225   -0.058068   -2.332843
H       0.865825    2.066105   -0.161333
H      -0.861233    1.920533   -0.518893
H      -0.292831    1.859830    1.157138
H      -1.264151   -0.347658    1.486795
H       0.997182   -0.812919    2.000050
H       2.270696   -2.193699   -0.110271
H       0.787509   -2.572717   -1.912992
H       0.675295    0.254009   -3.065695
H       2.005806    0.829642   -2.050726
H       2.114420   -0.751317   -2.833139
