19

O       0.148515    1.215218    0.261126
C       0.043154   -0.160599   -0.067424
C      -1.428877   -0.543256    0.038945
C      -1.682107   -2.023399   -0.250801
O      -0.969446   -2.882838    0.634093
C      -3.176228   -2.354750   -0.228869
O      -3.406154   -3.690462   -0.671743
C      -3.404884   -4.668819    0.257054
O      -3.487330   -5.824656   -0.026806
H       1.076732    1.463475    0.223233
H       0.400285   -0.359343   -1.091012
H       0.637712   -0.788345    0.611388
H      -1.785691   -0.292988    1.048216
H      -2.006777    0.076044   -0.656862
H      -1.302274   -2.278591   -1.247439
H      -1.136265   -2.587312    1.536962
H      -3.581960   -2.210486    0.783210
H      -3.730434   -1.706877   -0.913106
H      -3.349010   -4.278892    1.290558
