11

C       0.108704    1.375110    0.063781
O      -0.157967   -0.012188   -0.122057
C       0.570618   -0.584854   -1.171707
C       2.024953   -0.661301   -0.878980
N       3.154206   -0.663891   -0.639401
C       0.030364   -1.930909   -1.430814
N      -0.396140   -2.976245   -1.666715
H       1.154558    1.548926    0.345189
H      -0.123242    1.946755   -0.845583
H      -0.544375    1.700804    0.873569
H       0.461063    0.001999   -2.100475
