18

O       0.074579    1.343843    0.022826
C      -0.079096   -0.048227    0.236838
C      -1.411442   -0.583691   -0.299808
C      -1.519214   -2.086605   -0.160069
C      -1.947956   -2.794906    1.078115
O      -2.943829   -2.012187    1.789955
C      -3.825154   -2.160442    0.712984
N      -5.028393   -1.831675    0.604390
C      -2.837261   -2.880421   -0.144387
H      -0.607117    1.796866    0.529499
H       0.756967   -0.521593   -0.290656
H       0.022281   -0.308116    1.302412
H      -2.235105   -0.101283    0.237328
H      -1.507550   -0.302408   -1.354262
H      -0.755039   -2.644547   -0.701258
H      -1.420960   -3.550114    1.645151
H      -5.367450   -1.378758    1.454769
H      -3.050784   -3.688741   -0.827762
