16

O       0.111973    1.282243   -0.480049
C       0.114551   -0.020266    0.079886
C      -1.285029   -0.530990    0.077236
C      -1.902837   -1.883337    0.194774
C      -2.604214   -1.881359    1.579154
N      -3.212288   -0.501629    1.645900
C      -2.601391    0.066416    0.693422
O      -3.215743    0.307165   -0.544239
C      -2.289621   -0.797731   -0.945098
H       0.992046    1.656718   -0.376755
H       0.748562   -0.712465   -0.499026
H       0.498167   -0.015704    1.112469
H      -1.402245   -2.773929   -0.181956
H      -3.455623   -2.565524    1.639100
H      -1.901640   -2.134316    2.387642
H      -2.239635   -0.987391   -2.010593
