18

C      -0.298864    1.477200   -0.050532
C       0.052340   -0.003687   -0.060315
C       1.340749   -0.400582   -0.815308
O       2.012868   -0.765228    0.406411
C       0.815672   -0.600165    1.181204
C       1.034808    0.252731    2.422099
C       0.195691   -1.939461    1.558333
O       0.582463   -3.010719    1.177204
H       0.572399    2.099969    0.173546
H      -0.674754    1.778110   -1.034357
H      -1.077879    1.704131    0.684520
H      -0.825764   -0.590723   -0.344995
H       1.240368   -1.254638   -1.494854
H       1.854884    0.417767   -1.333469
H       1.402618    1.245224    2.155924
H       0.109093    0.364875    2.996163
H       1.781682   -0.223350    3.065797
H      -0.705412   -1.841456    2.212068
