18

O      -0.012476    1.394918    0.265822
N       0.078053    0.000406    0.202347
C      -1.053738   -0.569571   -0.045606
C      -0.990399   -2.076663   -0.089823
C      -1.526936   -2.701615   -1.391232
C      -3.021776   -2.661834   -1.533768
C      -3.834810   -1.651469   -1.184764
C      -3.487715   -0.344370   -0.647829
C      -2.309862    0.145814   -0.203527
H       0.890319    1.643413    0.489244
H       0.054035   -2.362245    0.057688
H      -1.563479   -2.482129    0.753740
H      -1.058184   -2.206869   -2.254780
H      -1.197486   -3.745589   -1.434848
H      -3.482686   -3.543839   -1.972322
H      -4.898095   -1.789165   -1.367033
H      -4.320550    0.356069   -0.634004
H      -2.277913    1.187399    0.093157
