18

C       0.008893    1.581572    0.015606
C       0.017857    0.076549   -0.037830
C      -1.113126   -0.635804    0.017253
C      -1.186457   -2.142100    0.049724
N      -0.572478   -2.757664   -1.119984
C       0.769306   -2.692681   -1.309313
C       1.643113   -1.800364   -0.776315
C       1.399304   -0.526147   -0.103364
O       2.343122    0.140776    0.309486
H       0.614157    1.927315    0.857743
H       0.466901    2.008176   -0.883845
H      -1.007495    1.971345    0.111372
H      -2.061232   -0.106542    0.075716
H      -0.693758   -2.525967    0.958511
H      -2.229924   -2.462776    0.081443
H      -1.050213   -3.547673   -1.518905
H       1.158303   -3.470717   -1.962198
H       2.696180   -1.978878   -0.963383
