18

O      -0.206239    1.412099   -0.001887
C      -0.096857    0.033277    0.044646
C      -0.346949   -0.838020   -1.154130
C      -1.237829   -0.973822    0.067272
C      -0.503891   -1.765267    1.132375
C      -1.116889   -2.428244    2.325560
C      -0.415375   -3.257717    1.267803
C       0.645365   -0.730952    1.154154
H       0.511186    1.753710   -0.546932
H      -0.807577   -0.315106   -1.986774
H       0.333919   -1.639582   -1.432825
H      -2.306942   -0.804723    0.019793
H      -0.629297   -2.306811    3.287943
H      -2.199711   -2.483470    2.380642
H      -1.025316   -3.870844    0.611995
H       0.544905   -3.695383    1.521844
H       1.655390   -1.087607    0.921800
H       0.666882   -0.158431    2.085562
