16

C      -0.087190    1.447768    0.049082
N      -0.011925   -0.001641    0.034751
C       0.064460   -0.814013   -1.045253
N       0.120105   -2.091490   -0.722923
C       0.078630   -2.133314    0.642296
C       0.120165   -3.412669    1.407101
C      -0.003944   -0.841633    1.142162
C      -0.071176   -0.357896    2.462761
N      -0.126768    0.046420    3.548863
H       0.763861    1.872825    0.587892
H      -0.072755    1.807797   -0.980697
H      -1.010102    1.781289    0.531027
H       0.076101   -0.417273   -2.050344
H       1.038375   -3.965444    1.183630
H       0.076408   -3.230759    2.483342
H      -0.720237   -4.056178    1.127425
