17

C       0.049527    1.210563    0.052360
C      -0.086587   -0.298330    0.009338
O       0.786312   -1.045228   -0.371518
N      -1.292579   -0.773675    0.531104
C      -2.623479   -0.515176    0.016147
C      -2.044461   -1.902573    0.046857
C      -1.686633   -2.604267   -1.258201
C      -0.798470   -3.749471   -1.058703
N      -0.140524   -4.685312   -0.901246
H       1.072932    1.482597   -0.204056
H      -0.635940    1.677773   -0.663146
H      -0.205620    1.592397    1.044671
H      -3.379455   -0.220040    0.739008
H      -2.706353   -0.032251   -0.956269
H      -2.388254   -2.576382    0.828799
H      -2.609123   -2.970113   -1.725288
H      -1.217180   -1.907837   -1.958023
