19

C      -0.165808    1.501454   -0.027985
C       0.079536   -0.012758    0.034128
C       0.750717   -0.525347   -1.206917
C       0.030313   -0.970813   -2.444446
C       0.942332   -1.963657   -1.738938
C       2.402947   -1.589069   -2.017327
N       2.166146   -0.223759   -1.464813
C       0.479123   -3.198944   -1.206716
N       0.110398   -4.206763   -0.770981
H       0.777487    2.043798   -0.148925
H      -0.818812    1.763786   -0.866901
H      -0.638391    1.856323    0.892086
H       0.711286   -0.249680    0.897079
H      -0.869061   -0.544056    0.171876
H      -1.029290   -1.174185   -2.328268
H       0.321093   -0.604810   -3.426927
H       3.118760   -2.147210   -1.408337
H       2.706760   -1.637556   -3.069342
H       2.304691    0.524653   -2.139119
