22

C      -0.135773    1.544050    0.135318
C      -0.010485    0.021442    0.014671
C       0.699990   -0.520329   -1.250129
C       0.637960   -2.057550   -1.239101
C       0.034798    0.006768   -2.533947
O      -1.343218   -0.324721   -2.496539
C       2.184070   -0.057397   -1.309633
C       2.976357   -0.488102   -0.160167
N       3.596099   -0.830098    0.753639
H       0.835922    2.049416    0.128328
H      -0.746057    1.964756   -0.669310
H      -0.621932    1.803710    1.080496
H       0.520128   -0.369067    0.890808
H      -1.012927   -0.415752    0.037240
H      -0.400984   -2.389344   -1.294118
H       1.174201   -2.481448   -2.095956
H       1.086541   -2.462962   -0.327588
H       0.175795    1.096060   -2.611411
H       0.528461   -0.450088   -3.407310
H      -1.749460   -0.029691   -3.316252
H       2.658617   -0.453277   -2.215727
H       2.246585    1.034525   -1.375060
