13

O      -0.184777    0.026306    0.172351
C      -0.015135    1.216734    0.106897
C       1.279772    1.924379   -0.000156
C       1.275176    3.290598   -0.062543
C       2.472065    4.042199   -0.165596
C       3.635914    3.349198   -0.200713
O       3.701358    2.023984   -0.144042
C       2.539286    1.185689   -0.038613
O       2.738051    0.012379    0.003799
H      -0.876816    1.926011    0.123016
H       0.317883    3.806698   -0.031381
H       2.474565    5.121887   -0.214990
H       4.617832    3.804854   -0.277845
