14

N       0.003453    1.332568    0.099723
C      -0.048796   -0.023098    0.027789
N      -1.146097   -0.677303    0.002588
C      -1.118595   -2.119249   -0.018072
C       0.218135   -2.847292   -0.016030
O       0.333050   -4.048459   -0.023032
N       1.340192   -2.017778   -0.010229
C       1.334584   -0.640654   -0.001232
O       2.350042    0.020923   -0.025703
H       0.895629    1.769295   -0.063530
H      -0.844333    1.853107   -0.046164
H      -1.683928   -2.507879    0.839792
H      -1.667306   -2.483348   -0.897314
H       2.245388   -2.474338   -0.026408
