16

C      -0.055062    1.530244   -0.008845
C      -0.017262    0.025854   -0.022705
C      -0.008102   -0.712174   -1.199244
C       0.008834   -2.105376   -1.178972
C       0.018563   -2.693167    0.075842
F       0.036150   -4.023223    0.162393
N       0.018780   -2.050197    1.221379
C      -0.002715   -0.711697    1.182445
N      -0.061916   -0.076461    2.406486
H       0.844224    1.962513    0.452128
H      -0.119798    1.929626   -1.023999
H      -0.916723    1.906769    0.556052
H      -0.018735   -0.189656   -2.151462
H       0.014383   -2.707107   -2.077479
H       0.170189   -0.672860    3.186605
H       0.316259    0.855291    2.463319
