18

C      -0.224356    1.575216    0.079605
C       0.000256    0.061509   -0.008642
C       0.835822   -0.415965   -1.255591
C       1.934710   -0.918272   -0.280347
N       1.124434   -0.423553    0.831592
C       1.211805   -0.722460    2.149329
O       2.143588   -1.315299    2.653048
C      -1.248520   -0.668260    0.196703
C      -2.281372   -1.260808    0.361686
H       0.721750    2.102488   -0.070227
H      -0.937044    1.894601   -0.686467
H      -0.628353    1.851125    1.057400
H       0.349233   -1.192681   -1.843133
H       1.136697    0.404313   -1.908416
H       2.082757   -2.002042   -0.254012
H       2.911166   -0.432610   -0.365513
H       0.337281   -0.352413    2.720786
H      -3.189053   -1.791933    0.511993
