16

N       0.095832   -1.150606   -0.245830
C       0.025343   -0.001716   -0.115988
C      -0.023798    1.418369    0.030686
C      -1.193273    2.077206    0.048427
C      -1.290573    3.570795    0.171504
C      -0.083026    4.222047    0.874798
C       1.246227    3.565526    0.526973
O       1.701177    2.553960    1.435580
C       1.276371    2.152138    0.127173
H      -2.118426    1.518218   -0.057448
H      -1.410686    3.983453   -0.841784
H      -2.213720    3.833336    0.698698
H      -0.047908    5.287783    0.630967
H      -0.208270    4.145618    1.959525
H       2.039670    4.218119    0.165881
H       2.076419    1.778647   -0.509695
