18

C      -0.040757    1.544877    0.013297
C       0.005326    0.016943    0.009906
C       0.667120   -0.524638   -1.264261
N       0.818279   -1.965641   -1.149657
C       0.981741   -2.549177    0.080424
N       0.961357   -1.984109    1.226607
C       0.746682   -0.539748    1.237691
C       1.187163   -3.986207    0.025846
N       1.352071   -5.126663   -0.060965
H       0.968770    1.970162   -0.024447
H      -0.599435    1.930914   -0.845778
H      -0.524873    1.918844    0.920718
H      -1.020620   -0.372582    0.036343
H       0.052635   -0.302434   -2.142888
H       1.642428   -0.036672   -1.414558
H       0.935517   -2.529715   -1.973833
H       1.725447   -0.045628    1.337462
H       0.191965   -0.291701    2.149446
