19

C      -0.136492    1.534233    0.017330
C      -0.027535    0.026894    0.017326
C      -0.819953   -0.774955    1.058089
C       0.686283   -0.658752    1.134434
O       1.524512   -1.768791    0.886846
C       1.553990   -2.353372   -0.345064
N       2.401446   -3.246673   -0.635020
C       0.486346   -1.948426   -1.333473
N       0.235014   -0.510367   -1.296896
H       0.752718    1.981606   -0.436578
H      -1.012702    1.859495   -0.556931
H      -0.247786    1.922948    1.033363
H      -1.410727   -0.242580    1.795956
H      -1.226355   -1.738069    0.770699
H       1.123555   -0.066241    1.930157
H       3.012550   -3.422884    0.165628
H       0.840960   -2.233258   -2.324685
H      -0.412121   -2.556858   -1.122585
H      -0.529317   -0.281090   -1.924667
