14

O       0.116777    1.295330   -0.324676
C      -0.052379   -0.079660   -0.096747
C       0.369422   -0.583900    1.307104
N      -1.050133   -0.498827    1.721559
C      -1.503246   -0.538652    0.315768
C      -2.639221    0.398133   -0.027979
O      -3.392817    0.234339   -0.951709
H      -0.131430    1.766804    0.478882
H       0.369767   -0.590081   -0.962072
H       0.782336   -1.601652    1.277095
H       1.055162    0.061444    1.867988
H      -1.391240   -1.240635    2.322521
H      -1.726458   -1.534730   -0.089813
H      -2.719454    1.276688    0.651794
