16

O      -0.097123    0.010401    0.049579
C      -0.072137    1.216894    0.031667
N      -1.156833    2.071375    0.033161
C      -0.732705    3.409905   -0.021413
C       0.600834    3.510272   -0.031397
C       1.186573    2.133818    0.022564
C       2.247934    1.731956    1.084053
C       3.056916    1.227860   -0.123879
O       2.092197    1.781630   -1.049292
H      -2.109945    1.754391   -0.026884
H      -1.476207    4.194694   -0.037285
H       1.176402    4.422166   -0.067608
H       2.684438    2.584701    1.605573
H       1.925763    0.977201    1.801583
H       4.051554    1.663324   -0.268959
H       3.117773    0.137946   -0.210903
