23

C      -0.440970    1.401496    0.855184
C      -0.054791   -0.087347    0.732547
C       0.205421   -0.478452   -0.726682
O       1.340249    0.132170   -1.309949
C       2.558249   -0.535906   -1.043398
C       3.213284   -0.167121    0.292622
C       3.688993    1.300697    0.299194
C       2.380927   -0.457055    1.522074
C       1.058008   -0.424759    1.700155
H       0.358298    2.035742    0.463058
H      -1.354330    1.613236    0.288382
H      -0.616457    1.680931    1.898347
H      -0.932802   -0.677041    1.035473
H       0.290217   -1.573843   -0.805057
H      -0.652115   -0.165319   -1.334410
H       2.403339   -1.625444   -1.089491
H       3.238675   -0.260340   -1.858159
H       4.110842   -0.800136    0.356546
H       2.845837    1.974991    0.128096
H       4.147072    1.564722    1.257067
H       4.429160    1.472063   -0.490179
H       2.979682   -0.664981    2.408480
H       0.705547   -0.609463    2.714607
