20

C       0.556747    1.567479   -0.016484
C       0.061645    0.115491   -0.051815
C       0.518115   -0.759329   -1.244001
N       1.295764   -1.923075   -0.733903
C       2.501209   -1.513628   -0.026434
C       1.272321   -1.887768    0.745044
C       1.172555   -3.156350    1.549425
C       0.489396   -0.685429    1.191399
O       0.196644   -0.419746    2.331162
H       1.647765    1.625832   -0.088050
H       0.137577    2.142684   -0.847518
H       0.252848    2.042861    0.920357
H      -1.033580    0.134966   -0.013385
H      -0.340996   -1.158184   -1.789958
H       1.134398   -0.205663   -1.959596
H       3.321588   -2.226295   -0.049350
H       2.808366   -0.470641   -0.067720
H       1.833265   -3.927017    1.145797
H       1.448961   -2.956448    2.588737
H       0.148826   -3.543725    1.543617
