14

O       0.020693    0.030485    0.106289
C      -0.015598    1.227360    0.045356
C      -1.249156    2.156135    0.013246
C      -0.526674    3.530656    0.034165
O       0.593779    3.257778   -0.827767
C       1.178764    2.222690   -0.031436
C       1.209857    2.850440    1.360157
C       0.155842    3.666851    1.397762
H      -1.787683    2.005227   -0.926795
H      -1.929017    1.967584    0.845567
H      -1.094003    4.382170   -0.337724
H       2.097510    1.834136   -0.463397
H       1.895611    2.581788    2.150747
H      -0.221338    4.245962    2.229228
