18

C      -0.049821    1.522662    0.186003
C      -0.014891    0.027083    0.089318
C       0.538526   -0.708422   -1.154815
C      -0.490963   -1.765052   -0.806274
C      -0.600031   -1.866875    0.680917
C       0.355491   -0.855907    1.304888
C       1.781928   -1.227210    1.612864
O       2.750980   -0.692944    1.132498
N      -1.354756   -0.794990   -0.051069
H       0.968579    1.910398    0.298523
H      -0.490779    1.962373   -0.713893
H      -0.640379    1.847950    1.048550
H       0.248925   -0.178419   -2.066473
H       1.600659   -0.958291   -1.186952
H      -0.933230   -2.512002   -1.456034
H      -1.120614   -2.678573    1.175805
H      -0.105425   -0.458312    2.220009
H       1.894780   -2.060138    2.346476
