21

C       0.002659    1.558800    0.004986
C       0.038031    0.029537    0.031046
C       0.738485   -0.566856   -1.182178
O       2.102781   -0.150206   -1.165257
C       2.853013   -0.605471   -2.276976
C       2.973649   -2.127328   -2.261864
C       1.572697   -2.763014   -2.251646
C       0.646319   -2.102894   -1.238894
O      -0.131267   -2.730764   -0.559958
H       1.013816    1.970238   -0.049148
H      -0.557387    1.928518   -0.861689
H      -0.479887    1.952627    0.904329
H       0.554624   -0.325189    0.929813
H      -0.972168   -0.387229    0.072087
H       0.260313   -0.191149   -2.109777
H       2.385726   -0.266068   -3.218156
H       3.834058   -0.128305   -2.197985
H       3.549266   -2.475758   -3.126745
H       3.522465   -2.425287   -1.361442
H       1.105764   -2.617418   -3.237446
H       1.593286   -3.838133   -2.058048
