17

C       0.134855    1.545895    0.066612
C      -0.045214    0.063171   -0.051754
C      -0.965657   -0.737183    0.778691
N       0.486901   -0.931225    0.989962
C       0.946778   -1.818523   -0.138991
C       0.375585   -3.155755   -0.199950
N      -0.080748   -4.214913   -0.283258
C       0.453754   -0.781262   -1.217417
O      -0.553876   -1.144202   -2.116986
H       1.155855    1.846862   -0.190645
H      -0.553577    2.068851   -0.606669
H      -0.070351    1.878772    1.087645
H      -1.432635   -0.229805    1.616616
H      -1.554640   -1.539081    0.343492
H       2.036168   -1.894543   -0.106083
H       1.313616   -0.325668   -1.724269
H      -0.182906   -1.720743   -2.794035
