15

N      -0.172080    1.506048    0.086847
C      -0.075848    0.103442    0.005250
C      -0.905662   -0.870789   -0.498323
C      -0.237281   -2.129359   -0.363300
C       0.971789   -1.863907    0.220394
N       1.077933   -0.513610    0.438787
O       1.998474   -2.676632    0.626028
C       2.578175   -3.470471   -0.324710
O       3.414665   -4.270963   -0.050501
H      -0.897309    1.848988   -0.530904
H      -0.389906    1.826548    1.026503
H      -1.894729   -0.709805   -0.898629
H      -0.616835   -3.104646   -0.623061
H       1.897900   -0.040500    0.778749
H       2.165943   -3.269513   -1.328984
