17

O      -0.602047    0.350622    0.262305
C       0.281979    0.887869   -0.358093
C       1.130997    1.998245    0.147502
C       2.600871    1.930475   -0.320378
C       1.674539    2.944920   -0.903701
N       0.747717    2.538390    1.421239
C       0.916620    1.671929    2.581774
C       2.320861    1.374401    2.937676
N       3.433500    1.186597    3.190455
H       0.551965    0.556547   -1.387092
H       3.336096    2.249923    0.407516
H       2.907403    1.089935   -0.933512
H       1.328895    2.817016   -1.923873
H       1.780078    3.981525   -0.600704
H       1.171968    3.443704    1.578857
H       0.440829    2.147185    3.445644
H       0.382437    0.737026    2.397392
