16

C      -0.093301    1.570891    0.291803
C      -0.022287    0.064761   -0.011173
N       0.805696   -0.703596    0.917907
C      -1.426354   -0.548829   -0.025462
C      -1.680000   -1.947049    0.371812
O      -1.981962   -0.861877    1.256482
C      -2.358484    0.064837   -0.958953
N      -3.070167    0.558440   -1.724285
H       0.912764    2.000736    0.287576
H      -0.694929    2.108443   -0.447496
H      -0.534592    1.739909    1.279954
H       0.393153   -0.077162   -1.017125
H       1.765153   -0.378189    0.865282
H       0.485991   -0.532086    1.867567
H      -2.546513   -2.462826   -0.035863
H      -0.822294   -2.548825    0.654588
