14

O      -0.041203    1.319893   -0.008955
N       0.058369   -0.079028   -0.029545
C      -1.101459   -0.621172    0.019988
C      -1.272651   -2.134986    0.004222
N      -2.724960   -2.305522   -0.180372
C      -3.319769   -1.058503   -0.001130
C      -2.428275   -0.038541    0.073916
C      -4.738771   -0.953993    0.041666
N      -5.893267   -0.888348    0.094695
H       0.881317    1.591272   -0.060973
H      -0.712816   -2.609448   -0.806121
H      -0.942476   -2.577773    0.952614
H      -3.162629   -3.092005    0.277552
H      -2.655322    1.013108    0.105840
