13

C       0.030788    1.467841   -0.095927
C       0.012637   -0.020912   -0.024446
O       0.546753   -0.820012   -1.127227
C       0.110016   -1.839085   -0.187984
C       0.503552   -1.023921    1.080026
O      -0.802365   -1.144514    1.710833
C      -1.136814   -1.041460    0.298248
H       1.055922    1.838018   -0.191276
H      -0.546886    1.820859   -0.955399
H      -0.408855    1.880957    0.816986
H       0.242020   -2.889739   -0.441389
H       1.399461   -1.035850    1.700289
H      -2.182467   -1.074149   -0.006816
