16

C       0.003879    1.561585   -0.151231
O       1.355668    1.985588    0.037877
C       2.062636    0.978004    0.733424
O       1.915013    1.107635    2.133486
C       0.722204    0.433998    2.541306
C       0.360022   -0.518797    1.409458
C      -0.003260    0.051489    0.047693
C       1.410703   -0.357735    0.347853
H      -0.659515    2.086490    0.550379
H      -0.301057    1.828763   -1.168969
H       3.120959    1.100387    0.502233
H       0.935226   -0.112421    3.466611
H      -0.071492    1.163970    2.753584
H      -0.035090   -1.495192    1.664526
H      -0.637470   -0.549578   -0.593414
H       1.959243   -1.156049   -0.132787
