16

C       0.040882    1.516830   -0.157316
O       1.437613    1.550292    0.215000
C       1.437580    0.139425    0.503628
C       0.002005   -0.014672   -0.032614
C      -1.085399   -0.835240    0.736380
C      -1.301916   -1.656172   -0.542824
O      -1.657925   -0.731669   -1.578123
C      -0.269610   -0.892945   -1.260541
H      -0.587025    2.053566    0.566315
H      -0.136089    1.925903   -1.158564
H       2.225328   -0.396604   -0.041880
H       1.549101   -0.063526    1.577980
H      -0.653303   -1.415287    1.557030
H      -1.960364   -0.286700    1.094636
H      -1.635014   -2.680738   -0.656961
H       0.401709   -1.166156   -2.067556
