15

N       0.000382    1.227505    0.006866
C      -0.019622   -0.027453    0.000564
C      -1.267880   -0.928833    0.002833
C      -0.646569   -2.294850   -0.007355
C       0.697642   -2.105070   -0.013604
N       1.367403   -3.280863   -0.023055
C       0.400921   -4.287972   -0.023725
C      -0.848706   -3.706178   -0.013239
O       1.150678   -0.815967   -0.009525
H       0.956490    1.584596    0.003575
H      -1.874388   -0.700597    0.886388
H      -1.883924   -0.691804   -0.871765
H       2.363156   -3.412220   -0.028944
H       0.698461   -5.322989   -0.031061
H      -1.783982   -4.244244   -0.010767
