21

C      -0.020829    1.454947   -0.150210
C       0.017974   -0.062826    0.096155
C       0.731337   -0.405953    1.413143
C      -1.370360   -0.633708    0.073536
C      -2.177197   -1.025489   -1.143855
C      -1.963173   -2.017400   -0.016645
O      -1.336605   -3.238543   -0.165957
C      -2.813568   -1.611046    1.182436
O      -2.275492   -0.260899    1.130993
H       0.990220    1.874172   -0.145783
H      -0.484418    1.689213   -1.113446
H      -0.599222    1.956254    0.632449
H       0.562283   -0.536984   -0.731147
H       1.741251    0.015625    1.429085
H       0.176686    0.001137    2.263602
H       0.810444   -1.489230    1.545525
H      -3.150041   -0.576050   -1.327888
H      -1.581322   -1.239597   -2.026727
H      -1.850504   -3.773467   -0.781033
H      -3.905601   -1.629074    1.082606
H      -2.508942   -2.117400    2.105429
