15

C      -0.197274    1.531871    0.090247
C       0.049598    0.023898   -0.053636
O       0.831873   -0.231241   -1.189605
C       0.708522   -0.579815    1.181365
O       1.742180   -1.211914    1.070122
C       0.075514   -0.423775    2.552535
O       0.758890   -1.162290    3.521026
H       0.741011    2.058352    0.288024
H      -0.609250    1.909809   -0.848263
H      -0.908459    1.751521    0.891985
H      -0.930590   -0.478561   -0.149193
H       1.563573   -0.791954   -0.889480
H       0.064339    0.650861    2.801387
H      -0.979477   -0.734570    2.490651
H       1.532952   -1.531378    3.068752
