21

C       0.022132    1.646971    0.011321
C       0.030031    0.107371    0.002230
C      -1.309871   -0.471286    0.011292
C      -2.423282   -0.928043    0.019110
C      -3.778454   -1.486274    0.029503
C      -3.813364   -2.951523    0.022244
C      -3.840191   -4.154692    0.016194
C      -3.899663   -5.613005    0.008873
C      -5.339591   -6.157957    0.020548
H       1.045345    2.034417    0.004047
H      -0.500913    2.037848   -0.865727
H      -0.484424    2.027497    0.902485
H       0.575185   -0.250253   -0.880775
H       0.591503   -0.260520    0.870673
H      -4.319512   -1.113233    0.910805
H      -4.336595   -1.104170   -0.837140
H      -3.371451   -5.994599   -0.874397
H      -3.353662   -6.004103    0.877038
H      -5.334174   -7.252063    0.014548
H      -5.875315   -5.820598    0.912042
H      -5.893283   -5.810990   -0.856158
