18

C       0.143245    0.892227   -0.850390
C       0.048406   -0.011257    0.357184
O       0.923243   -0.098541    1.187353
C      -1.208794   -0.885291    0.479296
C      -0.904891   -2.311545    0.010759
C      -2.061707   -3.359208    0.024493
N      -1.854906   -3.505756   -1.419108
C      -0.882451   -2.545781   -1.524889
O      -0.293023   -2.074503   -2.463593
H       1.069416    1.467049   -0.818549
H       0.113056    0.270122   -1.753191
H      -0.718001    1.568801   -0.893418
H      -1.486657   -0.907519    1.537877
H      -2.043583   -0.468316   -0.094289
H       0.003047   -2.676080    0.498038
H      -1.869934   -4.267451    0.603349
H      -3.040538   -2.948945    0.294604
H      -2.348500   -4.034662   -2.122706
