15

C      -0.094278    1.504278    0.057951
C       0.076673    0.019593    0.053711
N       0.810193   -0.557705   -0.868303
O       0.764106   -1.927301   -0.591419
C      -0.000749   -2.122988    0.494138
C      -0.152494   -3.550803    0.925570
C      -0.996084   -3.686216    2.110305
N      -1.663313   -3.789728    3.046809
C      -0.471434   -0.940248    0.959288
H       0.267511    1.935308    0.996885
H       0.461983    1.947993   -0.769555
H      -1.150206    1.775029   -0.042478
H      -0.582581   -4.144924    0.109731
H       0.832738   -3.985228    1.135658
H      -1.108249   -0.771794    1.811629
