19

O      -0.337004    1.430783   -0.236813
C      -0.173007    0.043063   -0.161072
C      -0.342853   -0.665045    1.155827
C      -1.415471   -0.765518    0.091711
C      -2.768929   -0.064078    0.258824
C      -3.710028   -0.953764   -0.512624
C      -3.113659   -2.038487   -1.003781
C      -1.637567   -2.081129   -0.691519
O      -0.823382   -2.234665   -1.853003
H       0.430055    1.843162    0.173268
H       0.541402   -0.377739   -0.866525
H       0.273228   -1.537301    1.354394
H      -0.564815   -0.051276    2.023933
H      -3.067402    0.005282    1.313395
H      -2.752342    0.963345   -0.122432
H      -4.762964   -0.716362   -0.624321
H      -3.587651   -2.823057   -1.582895
H      -1.376152   -2.953058   -0.078930
H      -1.070837   -1.530962   -2.464299
