19

C      -0.012726    1.525508   -0.054108
C      -0.019466    0.000301    0.006614
O       0.597844   -0.461226   -1.187142
C       0.825752   -1.856816   -1.190331
C       1.774716   -2.267128   -0.081252
C       2.377677   -3.608719   -0.096041
O       3.158476   -2.470588   -0.446468
C       1.539820   -1.542605    1.187891
C       0.682937   -0.523536    1.236116
H       1.015114    1.898601   -0.060589
H      -0.512378    1.863725   -0.965276
H      -0.535466    1.946717    0.809677
H      -1.071499   -0.346838    0.026216
H      -0.127057   -2.402468   -1.075058
H       1.258306   -2.107853   -2.162069
H       2.638888   -4.092946    0.844962
H       2.144940   -4.291599   -0.914127
H       2.081774   -1.877535    2.067518
H       0.468379   -0.017527    2.173803
