19

C      -0.350806   -0.914052   -0.839605
C      -0.193839    0.179176   -0.362806
C      -0.003763    1.501704    0.210121
C      -0.304107    1.595155    1.740685
C       0.663465    2.656100    2.209337
C       1.599423    2.914298    1.296364
C       1.419387    2.103712    0.064354
C       2.582054    1.345930   -0.542692
C       1.970137    2.508060   -1.279454
H      -0.497357   -1.879474   -1.256583
H      -0.689367    2.194483   -0.295895
H      -1.354076    1.841803    1.928216
H      -0.111548    0.636495    2.239564
H       0.608000    3.101678    3.195722
H       2.428613    3.603642    1.414540
H       3.559210    1.476750   -0.089885
H       2.381938    0.346688   -0.913292
H       1.363223    2.286758   -2.152108
H       2.528431    3.436380   -1.346593
