18

N       0.002376    1.347971    0.343097
C       0.010354    0.130772   -0.000768
C      -1.263724   -0.681587   -0.074123
C      -1.295588   -1.624417    1.102756
C      -0.673734   -2.807837    1.145818
C       0.064965   -3.455909    0.063614
C       0.817494   -2.937377   -0.916697
C       1.270107   -1.533350   -1.215107
O       1.182223   -0.555453   -0.180171
H       0.961354    1.701313    0.382532
H      -2.101152    0.015626   -0.047808
H      -1.308789   -1.249921   -1.009585
H      -1.826550   -1.274331    1.983162
H      -0.781285   -3.405082    2.049037
H      -0.018370   -4.542127    0.064464
H       1.224341   -3.639208   -1.644526
H       2.339059   -1.573026   -1.455390
H       0.773108   -1.163858   -2.125754
