19

C      -0.022839    1.570353    0.031722
C       0.115447    0.050684    0.015270
C       0.908799   -0.527245   -1.184590
C       1.558238   -1.757294   -0.611332
C       1.472267   -1.809280    0.728840
C       1.990021   -2.814449    1.579779
C       2.404328   -3.654657    2.337863
C       0.805366   -0.549685    1.275907
O       1.755077    0.305864    1.904060
H       0.954898    2.054876    0.105021
H      -0.513277    1.925440   -0.880585
H      -0.617122    1.905317    0.887364
H      -0.885513   -0.396625   -0.020812
H       0.261950   -0.754298   -2.039853
H       1.665892    0.177546   -1.560289
H       2.051207   -2.507133   -1.220045
H       2.776500   -4.397189    2.999082
H       0.077078   -0.767486    2.062353
H       2.540941    0.334742    1.347207
