17

C       0.121282    1.358636    0.078352
O      -0.036011   -0.044516   -0.060397
C       0.600709   -0.572118   -1.176061
O       2.040650   -0.492109   -1.064262
C       2.419915   -1.842183   -0.967267
C       1.599628   -2.715512   -1.960983
O       1.632344   -3.845635   -1.029659
C       1.374673   -2.680370   -0.174515
C       0.387410   -2.074618   -1.218878
H       1.173399    1.628080    0.223795
H      -0.263897    1.890647   -0.804217
H      -0.456369    1.658028    0.954943
H       0.308467   -0.024887   -2.085406
H       3.490241   -1.975085   -0.829175
H       1.742409   -2.914529   -3.022728
H       1.242690   -2.838240    0.894104
H      -0.615619   -2.477551   -1.333248
