13

N      -0.036058    1.375098    0.140328
C      -0.026573   -0.014017    0.039620
N      -1.145241   -0.672227    0.037599
N      -1.038555   -2.013677    0.045387
C       0.134461   -2.760802   -0.012939
N       0.061992   -4.034491   -0.059568
N       1.324230   -2.010944   -0.008273
C       1.234726   -0.728078    0.023309
H       0.647442    1.841167   -0.441394
H      -0.960965    1.763440    0.006213
H      -1.912325   -2.517185    0.047124
H       1.005376   -4.415604   -0.084361
H       2.162906   -0.153519    0.040447
