21

C      -0.264365    1.426041    0.096227
C       0.027273   -0.069024   -0.076772
C       0.793280   -0.365666   -1.393012
C       0.084476    0.058866   -2.594113
C      -0.518135    0.408007   -3.574558
C       0.815447   -0.611355    1.102394
C       0.098279   -1.085321    2.352360
C       0.788891   -2.072854    1.444250
O       0.026954   -2.897335    0.607972
H       0.666529    2.002506    0.161136
H      -0.838677    1.812526   -0.749851
H      -0.832796    1.607949    1.013463
H      -0.921893   -0.611637   -0.132385
H       1.775938    0.125472   -1.357524
H       0.983210   -1.443551   -1.445247
H      -1.040271    0.712207   -4.447313
H       1.770257   -0.113561    1.261482
H       0.526994   -0.875882    3.326442
H      -0.986975   -1.077226    2.321072
H       1.714556   -2.524320    1.801506
H      -0.403778   -3.563299    1.153453
