20

C      -0.390693    1.547407   -0.026835
C       0.022347    0.085958    0.040746
N       0.965111   -0.436605   -1.018401
C       2.384063   -0.228290   -0.591075
C       2.766311    0.838509    0.429229
C       1.945077    0.464838    1.691013
C       0.900076   -0.532649    1.171168
O       0.267665   -1.313965    2.147777
C       1.602457   -1.311194    0.029866
H       0.437969    2.241645    0.129449
H      -0.819562    1.758732   -1.012145
H      -1.159985    1.764266    0.723022
H      -0.871421   -0.541679   -0.047055
H       3.066274   -0.438036   -1.408654
H       3.842415    0.788698    0.623638
H       2.560609    1.849752    0.066704
H       2.571096   -0.039043    2.435057
H       1.483621    1.334177    2.173382
H      -0.065951   -0.729046    2.836084
H       1.715948   -2.383757   -0.070589
