17

C       0.248304   -1.192279    0.344348
C       0.107927   -0.013629    0.158602
C      -0.066319    1.423261   -0.069994
C      -0.943235    2.057396    0.992032
C      -0.707526    3.240904    1.549555
C       0.466961    4.120973    1.225976
C       1.527423    3.430376    0.400446
O       2.081629    2.232675    0.955468
C       1.282848    2.120022   -0.217453
H       0.377869   -2.232505    0.513306
H      -0.574901    1.538678   -1.041947
H      -1.815726    1.479461    1.280359
H      -1.404303    3.622205    2.291727
H       0.127212    5.015277    0.682861
H       0.922031    4.496959    2.152553
H       2.266279    4.086835   -0.060665
H       1.837122    1.841540   -1.113777
