19

C       0.064870    1.778810   -0.790551
N      -0.116208    0.377424   -1.109881
C       0.116720   -0.463086   -0.193014
N      -0.035051   -1.822596   -0.426004
C       0.201801   -2.796668    0.526979
O       0.565854   -2.525213    1.656697
C      -0.024558   -4.193453    0.057340
C       0.875804   -5.267430    0.644739
C      -0.547383   -5.184521    1.083607
H       0.394181    1.961435    0.244324
H       0.803141    2.218220   -1.471553
H      -0.875776    2.317399   -0.954818
H       0.443905   -0.239832    0.826252
H      -0.335923   -2.081521   -1.354038
H      -0.348856   -4.320781   -0.970026
H       1.177798   -6.072973   -0.014322
H       1.631798   -4.916678    1.337159
H      -0.742067   -4.778680    2.069189
H      -1.250535   -5.931449    0.734105
