21

C      -0.135773    1.521827    0.007654
C       0.056591    0.005168    0.042250
C       0.957894   -0.567392   -1.102985
C       2.010453   -1.293405   -0.269354
C       1.224086   -2.008996    0.896092
C       2.318308   -2.338560    1.903521
C       3.069398   -1.234481    1.916806
C       2.376350   -0.319335    0.914333
C       0.845715   -0.519498    1.245533
H       0.824372    2.048406    0.035614
H      -0.654821    1.830841   -0.906100
H      -0.729695    1.866828    0.861144
H      -0.932115   -0.469708    0.017977
H       0.414625   -1.242001   -1.772574
H       1.393998    0.226648   -1.719497
H       2.808005   -1.830311   -0.787669
H       0.450243   -2.749314    0.683046
H       2.424629   -3.261069    2.456262
H       3.960546   -1.004271    2.483215
H       2.796374    0.669439    0.722997
H       0.477458   -0.279166    2.245931
