13

N      -0.245377    1.474118   -0.060925
C      -0.039034    0.068082   -0.055380
C      -1.081575   -0.839651   -0.073746
O      -2.403876   -0.616925   -0.098583
N      -0.559471   -2.077917   -0.062715
N       0.818053   -2.053272   -0.037043
C       1.108247   -0.764720   -0.033125
O       2.382803   -0.319279   -0.009997
H       0.186152    1.915115   -0.867708
H       0.155309    1.917023    0.760590
H      -2.496710    0.348589   -0.101621
H      -1.045271   -2.956256   -0.069899
H       2.951429   -1.099986    0.001361
