17

C       0.174404    1.494279    0.046734
C       0.041289   -0.011207    0.263107
O       0.162113   -0.352067    1.643614
C      -1.271636   -0.560902   -0.328205
C      -1.370287   -2.052995   -0.274787
N      -1.696453   -2.763536   -1.323461
O      -1.693574   -4.068120   -0.915604
N      -1.358146   -4.174169    0.405238
C      -1.157192   -2.953163    0.812748
H       1.096653    1.859464    0.505793
H       0.193796    1.742203   -1.018814
H      -0.671041    2.029394    0.497955
H       0.882684   -0.522188   -0.218788
H      -0.443329    0.211316    2.139345
H      -2.111039   -0.115529    0.224310
H      -1.377178   -0.247192   -1.370870
H      -0.857082   -2.732542    1.823250
