23

O      -0.269961    1.532027   -0.231667
C      -0.001978    0.136359   -0.069941
C      -1.398547   -0.507563   -0.028612
C      -1.520445   -2.017922   -0.269485
C      -0.856814   -2.957368    0.745338
C       0.675881   -2.871908    0.792803
O       1.245918   -2.773516   -0.505568
C       1.860238   -1.538626   -0.818657
C       0.921927   -0.381043   -1.192540
H       0.563925    2.005848   -0.152614
H       0.507154   -0.015533    0.895107
H      -1.866716   -0.238915    0.926067
H      -1.978338    0.007056   -0.804710
H      -2.590303   -2.255738   -0.298559
H      -1.131097   -2.266371   -1.261886
H      -1.245508   -2.777925    1.756819
H      -1.140109   -3.983738    0.483529
H       1.000703   -2.027562    1.413738
H       1.076749   -3.779982    1.262253
H       2.506965   -1.219953    0.016404
H       2.515049   -1.747200   -1.671846
H       0.335806   -0.638039   -2.082310
H       1.575886    0.450411   -1.490644
