18

O      -0.018567   -0.005125    0.257772
C       0.031345    1.199693    0.121192
N       1.146069    1.906934   -0.188857
C       2.587154    1.593634   -0.114265
C       2.777102    2.916626   -0.934107
C       1.546816    3.321126   -0.051720
C       2.205151    3.379873    1.353947
C       1.908137    2.272799    2.332898
C       2.990142    2.075376    1.305658
H      -0.861004    1.858766    0.170757
H       2.913282    0.615856   -0.460364
H       3.704757    3.471760   -0.783591
H       2.528510    2.806120   -1.990949
H       0.831260    4.091038   -0.338057
H       2.634075    4.316477    1.688943
H       2.254102    2.444526    3.347275
H       0.987665    1.704049    2.279825
H       4.028768    1.998834    1.602722
