13

C      -0.406735    1.512552    0.016495
C       0.087329    0.084090   -0.007015
C       0.888918   -0.400612   -1.236395
C       2.022304   -0.547983   -0.244011
N       3.212583   -0.935849   -0.311199
O       1.284035   -0.099390    0.831486
H       0.377287    2.201240   -0.312954
H      -1.269547    1.623328   -0.648889
H      -0.715257    1.797768    1.026547
H      -0.687907   -0.613972    0.323544
H       0.557732   -1.332400   -1.697075
H       1.057199    0.350024   -2.011313
H       3.665932   -0.894502    0.603289
