20

C       0.261930    1.498339    0.151049
C       0.067659   -0.012682    0.016538
O       0.826061   -0.722579    0.984413
C      -1.406499   -0.435111    0.069079
C      -1.669708   -1.970299    0.061605
C      -2.293752   -1.829033    1.475985
N      -1.997161   -0.387073    1.429410
C      -2.726924    0.588994    2.034705
O      -3.491746    0.398685    2.956034
H       1.326449    1.741482    0.107147
H      -0.253455    2.040314   -0.648905
H      -0.127092    1.858467    1.110434
H       0.461114   -0.341445   -0.953900
H       0.445018   -0.507616    1.845177
H      -1.986692    0.130632   -0.669682
H      -2.360739   -2.308909   -0.710334
H      -0.755425   -2.561861    0.030514
H      -3.366209   -2.029360    1.552109
H      -1.776814   -2.358174    2.281106
H      -2.533649    1.590350    1.598482
