24

C       0.132360    1.550710    0.218530
C       0.046378    0.019443    0.074126
C       0.512186   -0.650369    1.381295
C      -1.418925   -0.375291   -0.190315
C       0.890685   -0.466532   -1.129935
C       2.390246   -0.141130   -1.085285
N       3.093533   -0.646168   -2.256418
C       3.626720    0.160240   -3.212160
O       3.622599    1.373242   -3.193189
H       1.142726    1.883363    0.475894
H      -0.158222    2.053399   -0.710339
H      -0.537925    1.900584    1.011087
H      -0.139528   -0.363264    2.213513
H       0.483062   -1.742974    1.299648
H       1.531799   -0.359463    1.652738
H      -1.795627    0.090656   -1.107435
H      -1.524875   -1.460521   -0.298426
H      -2.064634   -0.057559    0.635485
H       0.769326   -1.555352   -1.222914
H       0.479977   -0.032481   -2.050115
H       2.560471    0.936851   -1.081576
H       2.854267   -0.557451   -0.183945
H       3.131925   -1.642071   -2.406366
H       4.085835   -0.428167   -4.032081
