16

O      -0.078084    0.373163   -1.111034
C      -0.069477    1.323752   -0.379196
C      -1.231965    2.022292    0.224116
C      -1.118582    2.336689    1.716677
C      -0.753698    3.380902    0.719935
C       0.728345    3.541544    0.385376
C       1.233998    2.120713    0.007074
C       1.957647    1.446074    1.077615
N       2.517122    0.920564    1.942907
H      -2.209023    1.843763   -0.204911
H      -2.067204    2.438647    2.230937
H      -0.344946    1.848904    2.299482
H      -1.394721    4.247344    0.608523
H       0.841310    4.196356   -0.483274
H       1.298763    3.979311    1.208197
H       1.874887    2.134051   -0.877980
