19

C       0.047067   -1.185956    0.470066
C       0.049358   -0.000052    0.270436
C       0.014496    1.433344   -0.005270
C      -0.755674    2.245704    1.082687
C       0.291721    2.653150    2.127422
C       0.829583    1.545353    3.058215
O       2.049918    1.429095    2.294521
C       1.675236    2.524362    1.431144
C       1.424362    2.094941   -0.011558
H       0.064520   -2.231563    0.653403
H      -0.466748    1.569548   -0.980080
H      -1.171665    3.145200    0.615596
H      -1.589411    1.678820    1.504736
H       0.055617    3.597769    2.618483
H       1.028406    1.867795    4.088332
H       0.265225    0.606590    3.072491
H       2.381371    3.358280    1.516446
H       2.205555    1.428260   -0.383070
H       1.399352    2.984797   -0.651940
