16

C       0.101807    1.712327    0.192682
C       0.034050    0.191506    0.035329
C      -1.360019   -0.306338    0.382833
O      -2.013779   -1.042862   -0.307880
C       0.615226   -0.507606   -1.194532
C       2.072463   -0.372147   -1.283853
N       1.532066   -1.398907   -0.335691
C       1.082263   -0.658988    0.821086
O       1.382435   -0.767007    1.966823
H       1.108816    2.091210    0.005377
H      -0.585179    2.208910   -0.499831
H      -0.174257    1.995834    1.213078
H      -1.741410    0.077445    1.353475
H       0.006206   -0.966574   -1.961201
H       2.576430   -0.830770   -2.128008
H       2.582947    0.493762   -0.871959
