23

C      -0.435841    1.393879    0.588842
C      -0.211531   -0.088292    0.272265
C       0.880459   -0.694220    1.141215
O       0.532391   -0.686375    2.553271
C       0.611276   -2.133590    2.638795
C      -0.743163   -2.689863    3.053220
O      -1.134003   -2.117430    4.286938
C       1.087688   -2.236603    1.166234
C       0.349140   -3.131403    0.177128
H       0.467569    1.981882    0.392707
H      -1.245528    1.810409   -0.017303
H      -0.696394    1.523156    1.643146
H      -1.146608   -0.641431    0.416278
H       0.072766   -0.211887   -0.781131
H       1.813233   -0.133327    0.987670
H       1.357523   -2.428961    3.387377
H      -1.492749   -2.494039    2.271039
H      -0.686862   -3.774193    3.201356
H      -1.027365   -1.164303    4.173697
H       2.153192   -2.478491    1.127523
H      -0.725605   -2.937324    0.146373
H       0.740034   -2.989526   -0.835903
H       0.488950   -4.186750    0.434215
