15

O      -0.022963    1.450089    0.008874
C       0.030295    0.031368    0.001839
C      -1.369595   -0.487495    0.011612
C      -2.534777    0.242634    0.023036
N      -3.549679   -0.659932    0.028464
N      -3.138965   -1.933908    0.021301
C      -1.800696   -1.843721    0.011197
C      -0.970724   -2.992516    0.001360
C      -0.216951   -3.931218   -0.007425
H       0.878903    1.782477    0.003025
H       0.561135   -0.345692   -0.887496
H       0.576485   -0.354015    0.878194
H      -2.701629    1.306459    0.027582
H      -4.537995   -0.472505    0.036974
H       0.432425   -4.770828   -0.015582
