14

C      -0.048097    1.514488   -0.016940
O       1.133779    0.694939    0.016765
C      -0.123453    0.053114   -0.005861
C      -0.520150   -0.983935    1.049184
N      -0.833685   -1.999364   -0.026323
C      -1.899723   -1.395911   -0.842194
C      -0.511054   -0.940831   -1.073114
H      -0.249092    2.075762    0.894635
H      -0.211189    2.059660   -0.945733
H       0.338832   -1.311230    1.638852
H      -1.363891   -0.761440    1.710628
H      -2.329516   -2.087473   -1.560491
H      -2.616479   -0.726085   -0.370228
H       0.060227   -1.161640   -1.968324
