22

C      -0.406820    1.516126   -0.021532
C      -0.025907    0.035715    0.054935
C       0.438805   -0.378351    1.453034
N       0.696193   -1.818150    1.490962
C       1.992421   -2.399690    1.173196
C       3.239605   -1.539275    1.263673
O       3.188981   -0.881473    2.527536
C       2.376760   -1.638489    3.421695
C       1.438881   -2.464183    2.560046
H       0.438718    2.160374    0.244135
H      -0.729976    1.791163   -1.030084
H      -1.227837    1.750049    0.665456
H      -0.876238   -0.592918   -0.232677
H       0.772973   -0.179201   -0.666487
H       1.301069    0.230833    1.757083
H      -0.364736   -0.182396    2.174432
H       1.995471   -3.242181    0.486612
H       4.130945   -2.182017    1.178462
H       3.309466   -0.760990    0.495012
H       2.984981   -2.313146    4.045965
H       1.871172   -0.926806    4.084317
H       0.996117   -3.358714    2.990881
