19

C      -0.138478    1.561780   -0.044753
C       0.013564    0.041879   -0.019111
O      -1.267244   -0.590110   -0.021028
C       0.946243   -0.520849   -1.149685
C       1.961758   -1.286597   -0.315222
C       1.259531   -1.925092    0.920119
O       2.454402   -1.704702    1.752533
C       2.287425   -0.472694    0.971516
C       0.749272   -0.485940    1.207596
H       0.832723    2.062693    0.020670
H      -0.613538    1.887567   -0.978590
H      -0.759976    1.898322    0.790328
H      -1.762337   -0.256184   -0.776940
H       0.377525   -1.168134   -1.824013
H       1.411460    0.270805   -1.746965
H       2.770144   -1.841595   -0.789900
H       0.736529   -2.875784    1.015120
H       3.010152    0.329802    1.126194
H       0.363420   -0.253327    2.199027
