16

N      -0.138385    1.302592   -0.117318
C      -0.068805    0.053719    0.024307
O      -1.226530   -0.667526    0.063663
C      -1.076001   -2.037244    0.103400
C      -1.265141   -2.918870   -1.131769
C      -2.160575   -3.089022    0.065636
N      -1.480637   -3.812932    1.152784
C      -0.428022   -2.853750    1.191637
N       0.621984   -2.685288    1.867652
H       0.797574    1.703028   -0.104876
H       0.827759   -0.560923    0.149243
H      -1.701300   -2.379337   -1.967558
H      -0.540059   -3.683621   -1.396263
H      -3.234664   -2.962545    0.068294
H      -1.255466   -4.796183    1.031898
H       0.774456   -3.445108    2.533260
