17

O       0.106011    0.037063   -0.212588
C       0.029522    1.230491   -0.035373
C      -1.236592    2.065290    0.139343
C      -0.730898    3.446526    0.601242
C       0.671774    3.584636   -0.040212
C       1.208020    2.166694    0.003260
C       2.397844    1.708244    0.788438
N       2.443435    1.759568   -0.669689
H      -1.721575    2.129077   -0.844095
H      -1.946216    1.579465    0.812892
H      -1.401847    4.261039    0.320532
H      -0.639931    3.460150    1.692959
H       0.587037    3.913227   -1.083194
H       1.308597    4.304394    0.478850
H       2.997661    2.457394    1.298755
H       2.335807    0.738095    1.273912
H       2.295035    0.816240   -1.032523
