17

C      -0.044562    1.578084   -0.047009
C       1.517783    1.388453    0.006766
C       1.196970    0.177171    0.960528
C      -0.050257    0.004572    0.014799
C       0.651480   -0.307656   -1.283910
C       0.760894   -1.026383   -2.417865
O       1.846291   -0.582347   -3.138493
C       2.425709    0.443314   -2.426560
C       1.732829    0.646832   -1.289506
H      -0.439879    2.031328    0.866261
H      -0.468850    2.053686   -0.933911
H       2.189011    2.193387    0.298841
H       1.919210   -0.640929    1.004063
H       0.914604    0.502928    1.965475
H      -0.930665   -0.559907    0.314831
H       0.212640   -1.836631   -2.868564
H       3.295034    0.884489   -2.884658
