18

C      -0.237833    1.539359   -0.083072
C      -0.033701    0.047336    0.009427
C       1.309712   -0.608385   -0.203803
N       2.506777    0.161767   -0.345424
C       3.106188    0.935904    0.621027
O       4.095660    1.608853    0.381351
C       2.483720    0.870813    1.964863
C       1.394888    0.137469    2.223527
C       0.690784   -0.632660    1.181260
H       0.602500    2.099193    0.331215
H      -0.357404    1.844151   -1.128311
H      -1.139275    1.842118    0.459650
H      -0.869825   -0.541766   -0.358462
H       1.334968   -1.536971   -0.766443
H       2.937272    0.226050   -1.255813
H       3.000026    1.438359    2.729708
H       1.008168    0.074975    3.237936
H       0.252180   -1.566686    1.517737
