18

C       0.139169    0.884269   -0.878070
C       0.012480   -0.027773    0.321423
O       0.847933   -0.088402    1.193314
C      -1.223304   -0.931307    0.375450
C      -0.843118   -2.382828    0.079421
C      -2.025845   -3.389748    0.091676
N      -2.116866   -3.899604   -1.287243
C      -1.173621   -3.343920   -1.921642
O      -0.345834   -2.475624   -1.289437
H       1.070995    1.448684   -0.830377
H       0.108800    0.277701   -1.790404
H      -0.712652    1.572865   -0.924144
H      -1.625570   -0.887292    1.393147
H      -2.000785   -0.607677   -0.324237
H      -0.022309   -2.680207    0.736895
H      -1.856461   -4.221132    0.783187
H      -2.971155   -2.914745    0.376501
H      -0.943763   -3.496503   -2.970405
