19

N       0.070129    1.400507    0.063473
C      -0.008259   -0.006871   -0.019888
C      -1.057284   -0.896469    0.023161
C      -0.525685   -2.210761   -0.185078
C       0.833708   -2.068208   -0.342701
N       1.137915   -0.728209   -0.239574
C      -1.304538   -3.472479   -0.222556
C      -0.663930   -4.800953    0.094020
C      -1.664347   -4.208905    1.053397
H      -0.839437    1.813671   -0.102915
H       0.382345    1.714109    0.978714
H      -2.091029   -0.645651    0.210117
H       1.601857   -2.801368   -0.526416
H       2.035529   -0.309180   -0.409183
H      -2.075408   -3.503531   -0.989771
H      -0.956924   -5.664407   -0.492891
H       0.377194   -4.802522    0.396657
H      -1.286733   -3.801227    1.984492
H      -2.645874   -4.665175    1.124918
