19

C       0.108039    1.473285   -0.186448
C      -0.033009   -0.040404    0.032256
C       0.716731   -0.486661    1.293642
C      -1.512519   -0.428480    0.091667
C      -2.313388   -0.255362   -1.229515
N      -2.837110   -1.594539   -1.552750
C      -2.405442   -2.355780   -0.637789
O      -1.642289   -1.858141    0.361395
H       1.163306    1.754945   -0.250619
H      -0.380715    1.808210   -1.106704
H      -0.332213    2.030758    0.649003
H       0.400422   -0.561578   -0.833122
H       0.321033    0.019142    2.182627
H       0.621106   -1.563472    1.448496
H       1.780718   -0.240708    1.218149
H      -1.992270    0.087835    0.932145
H      -3.140042    0.454780   -1.132055
H      -1.679235    0.094931   -2.052261
H      -2.591425   -3.422188   -0.568640
