22

C       2.213257   -0.269530   -1.151183
C       1.182934   -1.067060   -0.378672
C       1.574459   -2.024668    0.720870
C       0.782977   -0.779587    1.056937
C       1.484324    0.320219    1.843484
O       1.455761    0.093682    3.245730
C      -0.669493   -0.872204    1.427515
C      -1.467806   -2.118383    1.420795
N      -1.067541   -1.514567    2.706992
H       3.074661    0.001720   -0.535194
H       2.591570   -0.856160   -1.995578
H       1.787073    0.654984   -1.556511
H       0.352324   -1.407329   -0.993258
H       1.101686   -3.000247    0.759221
H       2.613735   -2.033676    1.034979
H       2.542281    0.376309    1.576107
H       1.032726    1.294764    1.594835
H       0.534269    0.113213    3.527281
H      -1.218898    0.053032    1.250323
H      -2.530961   -2.068113    1.203485
H      -0.993336   -3.047087    1.120017
H      -0.258522   -2.024866    3.057710
