20

C      -0.070396    1.591360    0.094683
C       0.030318    0.081082   -0.030307
C       0.488192   -0.705538   -1.213616
C       1.402098   -0.126815   -2.304872
O       0.854032    1.076823   -2.837858
C       2.781878    0.015396   -1.639346
C       2.952956    1.101397   -0.604099
C       2.584158   -0.301483   -0.177729
N       1.228314   -0.786781    0.060736
H       0.315704    2.121063   -0.773511
H      -1.130726    1.849164    0.184422
H       0.426922    1.950613    1.001778
H      -0.777306   -0.404985    0.518063
H      -0.076037   -1.591342   -1.499880
H       1.481404   -0.873169   -3.108708
H       1.493721    1.437177   -3.460487
H       3.648937   -0.331084   -2.191643
H       3.973565    1.400748   -0.386031
H       2.241320    1.908874   -0.561255
H       3.327121   -0.858510    0.382979
