13

F      -0.005884    0.049805    0.003605
C      -0.010434    1.379187    0.010492
N      -1.188817    1.949887    0.029809
C      -1.220227    3.297503    0.037152
C      -0.057347    4.075176    0.025002
C       1.174956    3.428498    0.004546
C       1.216341    2.041577   -0.003160
C      -2.504979    3.923761    0.058278
C      -3.569997    4.483186    0.076015
H      -0.131972    5.154909    0.031600
H       2.095422    4.002036   -0.005294
H       2.142236    1.481240   -0.018906
H      -4.518416    4.961195    0.091738
