25

C      -0.350892    1.616175   -0.147761
O      -0.162612    0.236506    0.050048
C      -1.344668   -0.556383   -0.046340
C      -1.720615   -0.784932   -1.514949
C      -1.086285   -1.858101    0.726971
C      -2.323759   -2.759468    0.735190
C       0.214945   -2.640321    0.348010
C       0.542929   -2.784315    1.857867
C      -0.502958   -1.680245    2.166960
H       0.611308    2.101892    0.035298
H      -0.671733    1.861610   -1.170992
H      -1.094256    2.030255    0.551917
H      -2.168177   -0.019459    0.458002
H      -0.959172   -1.392509   -2.014068
H      -2.684605   -1.292325   -1.604840
H      -1.801458    0.164443   -2.051638
H      -2.576488   -3.123524   -0.265562
H      -2.154301   -3.637356    1.367017
H      -3.197640   -2.231061    1.135570
H       0.084983   -3.560839   -0.228402
H       0.930674   -1.995513   -0.165593
H       0.255713   -3.760463    2.257826
H       1.573611   -2.583810    2.158911
H      -0.038799   -0.700814    2.288904
H      -1.193616   -1.858798    2.996397
