19

C      -0.289415    1.530132   -0.040502
C       0.089068    0.053499    0.015571
O      -1.080682   -0.769596    0.119431
C       0.943342   -0.442988   -1.174720
N       1.534712   -1.711356   -0.736897
C       1.937996   -1.433293    0.659895
C       0.961513   -0.341116    1.226922
C       1.979873   -2.654488    1.461696
N       2.004074   -3.613773    2.105310
H       0.598674    2.168096   -0.086439
H      -0.895309    1.740925   -0.930282
H      -0.874603    1.810806    0.839681
H      -1.662909   -0.553572   -0.617664
H       0.356747   -0.584750   -2.086940
H       1.746057    0.273082   -1.396057
H       0.784015   -2.397327   -0.707311
H       2.955428   -1.023675    0.637441
H       1.523758    0.511022    1.614243
H       0.326262   -0.728062    2.024128
