27

C      -0.126799    1.516193    0.043782
C      -0.014406   -0.003924    0.035298
C      -1.298088   -0.599799   -0.530931
C       1.335124   -0.673982   -0.248299
C       1.397537   -1.937246   -1.098986
C       2.568794    0.177784   -0.523889
C       0.735167   -0.724908    1.161736
C       1.369379    0.076631    2.292809
C       0.198321   -2.038676    1.718295
H       0.751109    2.028514    0.435554
H      -0.295984    1.891225   -0.972994
H      -0.985100    1.830743    0.649945
H      -1.470633   -0.233728   -1.550406
H      -1.307027   -1.688332   -0.572256
H      -2.159820   -0.289702    0.072652
H       1.442418   -1.677112   -2.163573
H       2.306235   -2.506493   -0.868242
H       0.551573   -2.610537   -0.966118
H       2.609630    1.106316    0.044256
H       3.480075   -0.386604   -0.291398
H       2.617605    0.444083   -1.586780
H       1.782707    1.036861    1.986290
H       0.629793    0.276350    3.077795
H       2.182714   -0.495857    2.755179
H       1.008635   -2.615064    2.181118
H      -0.545554   -1.844067    2.500505
H      -0.273554   -2.681652    0.976178
