15

O       0.125156    0.006029    0.189708
C       0.052636    1.171776   -0.059330
O      -1.104570    1.892158   -0.052632
C      -0.817958    3.304023   -0.070648
C       0.620061    3.407048   -0.611592
C       1.685457    4.245740    0.150271
N       2.693583    3.284230    0.641426
C       2.298961    2.118615    0.329249
N       1.103398    2.035177   -0.410079
H      -1.558156    3.791605   -0.706234
H      -0.906601    3.692826    0.951215
H       0.610885    3.644847   -1.679315
H       2.163038    4.978934   -0.504348
H       1.270225    4.795052    1.004592
H       2.807403    1.198075    0.591589
