23

C      -0.098988    1.449455   -0.131527
C       0.140205   -0.042616   -0.058477
C       1.546070   -0.604741   -0.086856
C       0.730278   -0.670193    1.169427
C       1.019070   -0.030513    2.520490
O       0.557296   -1.210128    3.207990
C       0.256684   -1.906902    1.957803
C      -1.230678   -2.224504    1.873344
C       1.122306   -3.153355    1.824673
H       0.684728    2.003817    0.395789
H      -0.106391    1.797492   -1.170141
H      -1.059055    1.724868    0.319309
H      -0.607761   -0.642283   -0.573349
H       1.726086   -1.523574   -0.636240
H       2.374227    0.098365   -0.114173
H       2.074385    0.185088    2.736207
H       0.420037    0.854465    2.775482
H      -1.827736   -1.315632    1.984792
H      -1.481087   -2.689667    0.913554
H      -1.511368   -2.920652    2.670464
H       0.881803   -3.864196    2.621859
H       0.951510   -3.650634    0.863487
H       2.182574   -2.898089    1.898694
