11

C       0.014801   -1.181065   -0.003742
C       0.025050    0.021687    0.002490
C      -0.011908    1.444277    0.010598
C      -1.233341    2.141932    0.030635
N      -1.261896    3.463160    0.038063
C      -0.058233    4.047622    0.025099
N       1.126262    3.435926    0.006006
N       1.155483    2.111059   -0.001449
H       0.022812   -2.243633   -0.009432
H      -2.179454    1.607035    0.040416
H      -0.028202    5.132853    0.030481
