23

C       0.011232    1.560062    0.129866
C      -0.019669    0.060068    0.082718
C       1.162923   -0.776694   -0.364584
C       0.592618   -0.975649    1.014232
O       1.344207   -0.732077    2.155741
C      -0.698206   -1.825509    1.004517
C      -0.577742   -3.283436    0.560762
C      -1.422893   -1.724821    2.348318
C      -1.285454   -0.803234   -0.041127
H       0.983388    1.919457    0.481949
H      -0.168751    1.997344   -0.859704
H      -0.754457    1.951573    0.809360
H       1.062203   -1.521749   -1.151102
H       2.110181   -0.244711   -0.368367
H       2.078059   -1.355616    2.176616
H      -0.028787   -3.875915    1.302508
H      -1.567287   -3.740570    0.445176
H      -0.056141   -3.379615   -0.396455
H      -1.509703   -0.684822    2.677510
H      -2.431339   -2.146975    2.274224
H      -0.881340   -2.269670    3.128350
H      -2.190719   -0.308453    0.321966
H      -1.481938   -1.205346   -1.041078
