18

O      -0.437772    1.721166   -0.470147
N      -0.062655    0.470387   -0.943044
C      -0.709988   -0.489947   -0.381550
C      -0.357766   -1.893985   -0.822116
C       0.327799   -2.707595    0.261266
C      -0.477372   -3.483765    1.272103
C       0.295623   -4.214324    0.202695
C      -1.714658   -0.302585    0.612022
C      -2.582278   -0.180302    1.437843
H       0.121907    2.311870   -0.986511
H      -1.274405   -2.409287   -1.135833
H       0.290302   -1.805565   -1.699605
H       1.250363   -2.262873    0.624335
H      -0.116110   -3.527975    2.293337
H      -1.557974   -3.451685    1.186524
H      -0.265502   -4.676772   -0.603084
H       1.188830   -4.758635    0.488293
H      -3.341448   -0.058470    2.170710
