17

N      -0.560250    1.099289   -0.415198
C      -0.430506   -0.155472   -0.396608
O      -0.761954   -0.845150    0.717782
C      -0.790922   -2.264183    0.614892
C      -2.171029   -2.750247    0.193750
N      -2.518866   -2.501306   -1.232929
C      -2.910630   -3.918199   -1.471178
C      -2.335758   -4.258290   -0.087809
O      -2.077422   -5.258357    0.508976
H      -0.234917    1.465549   -1.307485
H      -0.052776   -0.791556   -1.206417
H      -0.035962   -2.615189   -0.099638
H      -0.545044   -2.655957    1.605574
H      -2.917503   -2.390550    0.915976
H      -3.272814   -1.837507   -1.360556
H      -3.990394   -4.112173   -1.528829
H      -2.423283   -4.391390   -2.330406
