15

O      -0.438110    1.427515    0.383854
C      -0.079779    0.096481    0.111121
C       0.344377   -0.754448    1.365013
O       0.288024   -0.070731    2.577277
C      -0.812342   -1.778852    1.030875
C      -1.283198   -0.837270   -0.112185
O      -2.440577   -0.453129    0.685496
C      -2.122011   -1.360732    1.682928
O      -2.754781   -1.613314    2.652562
H       0.355501    1.971880    0.349655
H       0.642414    0.014743   -0.710308
H       1.329851   -1.219556    1.276060
H      -0.270592    0.706656    2.431606
H      -0.575602   -2.836437    0.949239
H      -1.574898   -1.137249   -1.117017
