23

C       0.013569    1.578434    0.037008
C      -0.004604    0.046670    0.060417
C      -1.404262   -0.563877   -0.048436
C      -2.141073   -0.306365   -1.381760
C      -3.282501   -1.336334   -1.368386
C      -2.661929   -2.563793   -0.701900
C      -3.423162   -3.778340   -0.394320
O      -2.518064   -3.747235   -1.501055
C      -1.421624   -2.105149    0.071352
H       1.031892    1.962628    0.151556
H      -0.383863    1.972370   -0.903897
H      -0.591209    1.993383    0.851434
H       0.615657   -0.342625   -0.758729
H       0.465010   -0.304680    0.988535
H      -2.024932   -0.148604    0.759729
H      -2.495286    0.722162   -1.488510
H      -1.460878   -0.509599   -2.219699
H      -4.113815   -0.962910   -0.757216
H      -3.678865   -1.583889   -2.356044
H      -3.121514   -4.411250    0.440477
H      -4.480386   -3.837823   -0.655544
H      -0.539605   -2.535324   -0.418108
H      -1.415027   -2.448451    1.109994
