12

O       0.126799    1.322076    0.045760
C       0.081513   -0.019971    0.043344
N       0.082108   -0.724757   -1.074622
N       0.029284   -2.013869   -0.645965
C      -0.003778   -2.125662    0.694581
C       0.028418   -0.836217    1.211106
C       0.012626   -0.431080    2.561510
C      -0.000666   -0.080083    3.713391
H       0.156560    1.609334   -0.875755
H       0.018912   -2.751088   -1.328421
H      -0.046850   -3.079183    1.195841
H      -0.012079    0.236505    4.726319
