19

C      -0.097296    1.605332    0.009292
C       0.031851    0.080246   -0.018673
C       0.730621   -0.504825    1.228252
C      -0.007109   -0.137544    2.439915
N      -0.623567    0.153443    3.373608
C       0.899302   -2.071683    1.157293
N       1.604454   -2.569427   -0.020611
C       1.579226   -2.549061    2.361649
C       2.169347   -2.902474    3.345925
H       0.885485    2.084255    0.077138
H      -0.582284    1.965637   -0.902323
H      -0.692690    1.937800    0.864144
H      -0.959586   -0.378621   -0.116282
H       0.611583   -0.218424   -0.898196
H       1.736844   -0.073233    1.310262
H      -0.112087   -2.498294    1.131609
H       1.131438   -2.295598   -0.874358
H       2.552928   -2.208614   -0.052384
H       2.669793   -3.229099    4.224144
