16

C      -0.021907    1.504720    0.010178
C       0.021877   -0.000067    0.023636
C       0.322926   -0.770793    1.253019
N       1.334446   -0.679147    0.156156
C       1.208544   -1.790421   -0.724166
N       0.164149   -1.913130   -1.441728
C      -0.712747   -0.769057   -1.099223
C      -2.057734   -1.219278   -0.727573
N      -3.118471   -1.543465   -0.404633
H       0.651120    1.918174    0.764970
H       0.279328    1.895518   -0.967419
H      -1.036022    1.859235    0.222512
H       0.597313   -0.239142    2.158455
H      -0.161139   -1.731774    1.403391
H       2.032400   -2.496676   -0.771091
H      -0.811023   -0.125935   -1.983733
