23

C      -0.032438    1.587165   -0.219936
C       0.026362    0.063756   -0.120836
C       1.087660   -0.804538   -0.878191
C       2.145932   -0.521171    0.253657
C       2.966975    0.757171    0.414472
C       0.782692   -0.762673    0.986558
C       0.615129   -1.959940    0.028252
C      -0.447670   -2.987820   -0.125103
C       1.009259   -3.389773    0.127428
H       0.910496    2.057301   -0.495656
H      -0.762967    1.868607   -0.986474
H      -0.371013    2.033286    0.722573
H      -0.989083   -0.323612   -0.258121
H       1.264762   -0.846803   -1.955815
H       2.823761   -1.374686    0.363568
H       2.389091    1.627995    0.720905
H       3.731616    0.597862    1.182848
H       3.494364    1.009352   -0.513023
H       0.596571   -0.753612    2.063451
H      -1.156919   -3.137523    0.683551
H      -0.857397   -3.179521   -1.112382
H       1.554005   -3.844704   -0.694555
H       1.254434   -3.802888    1.101374
