12

O      -0.449591    0.115856    0.006728
C      -0.126433    1.267520    0.008760
N       1.183531    1.761376   -0.000673
C       2.369584    1.018939   -0.014844
O       2.428805   -0.176597   -0.021770
C       3.609091    1.940147   -0.021117
C       4.862249    1.197976   -0.037947
N       5.875007    0.645106   -0.051294
H      -0.846007    2.110776    0.019615
H       1.264959    2.768288    0.003463
H       3.567329    2.600130   -0.896493
H       3.584267    2.588842    0.863299
