13

C      -0.002871    1.380352   -0.012891
O       0.019456   -0.059050   -0.031179
C       0.600983   -0.643978   -1.049518
N       0.717123   -1.925192   -1.235614
C       1.393652   -1.958760   -2.429460
C       1.765407   -3.254506   -3.066728
O       2.356403   -3.353952   -4.108800
N       1.683134   -0.793432   -2.958709
O       1.145540    0.107011   -2.021854
H       1.014409    1.779285   -0.001361
H      -0.540589    1.766364   -0.882368
H      -0.525004    1.645559    0.904801
H       1.435696   -4.129403   -2.471323
