16

O      -0.121343    1.487719    0.047047
C       0.002707    0.078464    0.147113
C      -1.374389   -0.521514   -0.148093
C      -1.387911   -2.010570   -0.040528
N      -1.462872   -2.825738   -1.096840
N      -1.435054   -4.039663   -0.572645
N      -1.348792   -4.110048    0.760036
C      -1.315910   -2.830738    1.107337
O      -1.227048   -2.408036    2.383513
H       0.734645    1.879725    0.241811
H       0.735517   -0.316200   -0.573876
H       0.327398   -0.227763    1.153403
H      -2.091506   -0.085308    0.556348
H      -1.683434   -0.230403   -1.155425
H      -1.493714   -4.867068   -1.141181
H      -1.208647   -3.187949    2.951677
