20

C       0.010738    1.562019    0.011592
C       0.029027    0.027064    0.024845
C       0.834715   -0.497156    1.222041
C      -1.409440   -0.528181   -0.004974
O      -2.154762   -0.007705   -1.105397
C      -1.486573   -2.063212   -0.013388
C      -2.919094   -2.531269   -0.162617
O      -3.293629   -3.347059   -0.963762
H       1.024759    1.961841   -0.086772
H      -0.596984    1.940521   -0.812522
H      -0.411098    1.952109    0.945789
H       0.522546   -0.319293   -0.897160
H       1.821358   -0.024846    1.252785
H       0.329892   -0.262181    2.167006
H       0.990419   -1.578879    1.182247
H      -1.943178   -0.153091    0.879390
H      -1.767029   -0.354624   -1.917426
H      -0.891685   -2.491233   -0.828889
H      -1.100249   -2.465924    0.931936
H      -3.629989   -2.061110    0.555347
