22

C      -0.246639    1.487930   -0.237929
C      -0.037584    0.001147   -0.022550
O      -1.329608   -0.628621   -0.045755
C      -1.364877   -1.972903    0.101351
N      -0.300974   -2.637490    0.280206
C      -2.827597   -2.441665    0.037762
C      -2.934598   -3.945545   -0.204288
C      -3.533722   -2.037773    1.346520
O      -3.465636   -1.818638   -1.075515
H       0.718206    2.003371   -0.223195
H      -0.723540    1.681565   -1.203265
H      -0.875627    1.914192    0.549052
H       0.587456   -0.445914   -0.802012
H       0.441739   -0.213273    0.937973
H      -0.501999   -3.630713    0.362685
H      -2.543295   -4.518732    0.640837
H      -3.987828   -4.207486   -0.332909
H      -2.398310   -4.231115   -1.112784
H      -3.464076   -0.957311    1.497958
H      -4.589770   -2.315102    1.287687
H      -3.084377   -2.534722    2.212403
H      -3.187611   -0.895308   -1.069084
