22

C      -0.093131    1.567046   -0.053908
C      -0.022115    0.038969    0.017752
O       0.431168   -0.497457   -1.216182
C       0.803066   -0.533004    1.213651
C       0.773844   -2.071116    1.156255
C       2.256854   -0.030662    1.187251
N       0.126873   -0.068981    2.441753
C       0.525957   -0.327725    3.714900
O       1.551946   -0.884711    4.048623
H       0.894296    1.997485   -0.253756
H      -0.760881    1.861415   -0.867694
H      -0.460514    2.014581    0.873814
H      -1.042254   -0.356572    0.126008
H       1.233370   -0.027395   -1.467552
H       1.234578   -2.423479    0.231722
H       1.309654   -2.484896    2.012398
H      -0.258417   -2.436279    1.181096
H       2.310267    1.055713    1.297157
H       2.819259   -0.479999    2.005593
H       2.733725   -0.314451    0.243408
H      -0.808356    0.296128    2.343831
H      -0.211303    0.054113    4.451596
