15

O       0.367846    1.338616   -0.068815
C       0.168192    0.004741   -0.011508
N       0.200898   -0.759719   -1.091453
N      -0.041616   -2.005035   -0.607503
C      -0.218205   -2.026288    0.731225
C      -0.095729   -0.722681    1.174545
C      -0.195100   -0.214432    2.554587
C      -1.389253   -0.418587    3.396428
O      -0.211538   -1.201547    3.593052
H       0.551394    1.560372   -0.990335
H      -0.041346   -2.781231   -1.244912
H      -0.396110   -2.937286    1.279456
H       0.420015    0.658789    2.771554
H      -1.619510    0.288028    4.193151
H      -2.241579   -0.951827    2.978379
