17

C       0.002576    1.559938   -0.002348
C       0.010750    0.064384   -0.023287
C      -0.002835   -0.772170   -1.101058
N       0.012617   -2.062870   -0.618652
C       0.006083   -3.221733   -1.399375
O       0.019668   -4.342773   -0.979413
N       0.035771   -2.091815    0.743725
C       0.034845   -0.823744    1.108800
C       0.057070   -0.443204    2.553309
H       0.886472    1.959666    0.507998
H      -0.010752    1.971040   -1.015010
H      -0.874412    1.949991    0.527130
H      -0.021720   -0.573049   -2.161570
H      -0.013413   -2.956069   -2.473491
H       0.937487    0.165365    2.789389
H      -0.824517    0.150714    2.820359
H       0.075360   -1.339970    3.174780
