22

C       0.518317    1.662904   -0.018241
C      -0.044947    0.236622   -0.007331
C       0.333912   -0.538635   -1.254996
C       1.639851   -1.292699   -1.343302
C       0.324799   -2.046568   -1.347211
C      -0.059236   -2.941195   -0.189315
N       0.545005   -4.261489   -0.316715
C      -0.162072   -5.419526   -0.247622
O      -1.354130   -5.506026   -0.038666
H       1.611960    1.653464   -0.072185
H       0.149670    2.225561   -0.882966
H       0.228603    2.210626    0.883734
H       0.314437   -0.284988    0.886828
H      -1.138419    0.276646    0.081532
H       0.029437   -0.039035   -2.172483
H       2.223106   -1.244756   -2.256265
H       2.238217   -1.341423   -0.436957
H       0.017592   -2.450234   -2.308748
H       0.234683   -2.488968    0.765420
H      -1.138801   -3.107633   -0.152248
H       1.530964   -4.314534   -0.519386
H       0.487736   -6.303691   -0.407109
