21

C      -0.238186    1.552245    0.037412
C       0.050007    0.042177   -0.018501
C       0.928574   -0.408341   -1.171175
C       1.908030   -1.228382   -0.773788
C       1.932511   -1.386340    0.707730
C       2.193447   -0.093952    1.462223
O       2.803635    1.015111    0.875497
C       0.764540   -0.522270    1.224208
C      -0.089900   -0.936087    2.398396
H       0.681780    2.125424    0.168572
H      -0.737109    1.888747   -0.877734
H      -0.900820    1.784186    0.877589
H      -0.921056   -0.470065   -0.115129
H       0.741892   -0.099731   -2.194637
H       2.634290   -1.701298   -1.426106
H       2.213738   -2.334474    1.155027
H       2.547534   -0.208227    2.482975
H       2.760864    0.892332   -0.082379
H      -0.645699   -0.082180    2.804630
H      -0.820477   -1.701592    2.110241
H       0.517147   -1.347401    3.211380
