24

C      -0.002567    1.501424    0.203850
C      -0.098079   -0.004601   -0.064930
C       0.684819   -0.489569   -1.289778
C       0.158570    0.092639   -2.602157
C       2.262375   -0.398311   -1.204702
C       2.333804   -1.923143   -1.377725
C       3.400841   -2.701148   -2.083011
N       1.604596   -2.477127   -0.206715
C       0.848839   -2.021144   -1.402434
H       1.039516    1.819853    0.318220
H      -0.442924    2.095191   -0.603692
H      -0.529286    1.764178    1.126770
H       0.269919   -0.556375    0.805504
H      -1.153498   -0.285345   -0.189673
H       0.289717    1.178609   -2.641391
H       0.685973   -0.335394   -3.461894
H      -0.909886   -0.121192   -2.726312
H       2.693949    0.157917   -2.041159
H       2.679434   -0.026662   -0.264936
H       4.328852   -2.722693   -1.498678
H       3.088312   -3.737975   -2.251696
H       3.633462   -2.258301   -3.057552
H       1.668337   -3.493742   -0.270730
H       0.200486   -2.706606   -1.939401
