14

O       0.000131    1.445673    0.009559
C      -0.006061    0.027046    0.002135
C      -1.380848   -0.456471    0.012359
C      -2.509292   -0.877653    0.020575
C      -3.821638   -1.411703    0.030033
N      -4.885897   -0.625755    0.040860
O      -5.975789   -1.479776    0.047665
C      -5.547013   -2.750599    0.040812
C      -4.194004   -2.793269    0.029573
H       0.919768    1.730206    0.002342
H       0.502943   -0.375367   -0.889583
H       0.519406   -0.384704    0.879931
H      -6.316268   -3.507066    0.045196
H      -3.545449   -3.652010    0.022021
