21

C      -0.047668    1.651066   -0.003170
C       0.044924    0.135141   -0.090275
C       1.224788   -0.590913   -0.790939
C       2.138335   -0.222555    0.449561
C       0.779355   -0.732208    1.002691
O       0.237194   -1.140604    2.212253
C      -0.559272   -2.316609    1.894207
C      -0.448429   -2.620131    0.349826
C       0.858839   -1.892523    0.022129
H       0.892849    2.137707    0.264415
H      -0.373369    2.070907   -0.961738
H      -0.791778    1.939208    0.747552
H      -0.933213   -0.260164   -0.375013
H       1.517533   -0.515948   -1.836954
H       3.000162   -0.872763    0.617506
H       2.403681    0.825918    0.579628
H      -0.171594   -3.149750    2.491391
H      -1.594462   -2.130517    2.197969
H      -0.396043   -3.696177    0.168881
H      -1.324472   -2.241864   -0.179601
H       1.720461   -2.548198    0.181274
