21

C       0.057286    1.499509    0.138615
C       0.000893    0.009329    0.003072
C      -0.038162   -0.729403   -1.120562
C      -0.054374   -0.262317   -2.543886
C      -0.030745   -2.192058   -0.805912
C       1.214651   -2.711978   -0.088239
C       0.023377   -2.294252    0.709045
O      -0.609597   -3.305569    1.432227
C      -0.016588   -0.864617    1.245100
H       0.972712    1.819784    0.653322
H       0.024579    2.009770   -0.826951
H      -0.781350    1.871561    0.742352
H      -0.066767    0.826647   -2.630295
H       0.822007   -0.635197   -3.089279
H      -0.934967   -0.650018   -3.072383
H      -0.597945   -2.892009   -1.411446
H       1.384353   -3.782480   -0.132344
H       2.107775   -2.094803   -0.088425
H      -1.551391   -3.102824    1.461865
H       0.819610   -0.651253    1.923467
H      -0.933235   -0.700390    1.833929
