20

C       0.368447    1.718672    0.116538
C       0.114247    0.208010    0.140584
C       0.485608   -0.503178   -1.164152
C       0.503745   -2.050272   -1.116230
C       0.163752   -2.460665   -2.553216
C      -1.253609   -2.437150   -3.000016
N      -0.363384   -1.293006   -3.277936
C      -0.466121   -0.219920   -2.340065
O      -1.195384    0.725057   -2.480229
H       1.427910    1.935369   -0.062753
H      -0.216347    2.194974   -0.672571
H       0.094775    2.173620    1.073404
H       0.688719   -0.248959    0.956157
H      -0.942827    0.013507    0.360951
H       1.478631   -0.160858   -1.491280
H       1.475148   -2.441425   -0.807660
H      -0.239138   -2.425742   -0.403233
H       0.878704   -3.066267   -3.102523
H      -1.567467   -2.992380   -3.879082
H      -2.028650   -2.298481   -2.249620
