19

C      -0.493084    1.480228    0.257391
C      -0.183880    0.002288    0.054578
C       0.534097   -0.491575   -1.231727
C       1.277560    0.504055   -2.112672
O       2.190595   -0.193915   -2.936197
O       1.496454   -1.245527   -0.440214
C       1.029002   -0.671626    0.781391
C       2.011969    0.282104    1.428240
O       3.009626    0.701695    0.902606
H       0.387914    2.114978    0.131273
H      -1.250497    1.812334   -0.460006
H      -0.894956    1.659734    1.259998
H      -1.087105   -0.586059    0.232540
H      -0.048239   -1.171610   -1.863692
H       0.576645    1.026150   -2.773705
H       1.794321    1.250798   -1.494850
H       2.766655   -0.677114   -2.330221
H       0.755552   -1.436124    1.522968
H       1.722213    0.588954    2.460736
