14

N      -0.016322    1.413680    0.149334
C       0.002031    0.020283    0.047599
C      -1.193455   -0.711825    0.033045
C      -1.169433   -2.101042   -0.006272
C       0.039796   -2.792859   -0.033242
C       1.230008   -2.068437   -0.020015
C       1.216722   -0.679072    0.019239
H       0.808726    1.873396   -0.207872
H      -0.857592    1.850752   -0.198334
H      -2.142255   -0.183171    0.056372
H      -2.107954   -2.646426   -0.018430
H       0.054336   -3.876307   -0.065141
H       2.182801   -2.588118   -0.043007
H       2.151014   -0.124830    0.031779
