17

O       0.061564    1.388530   -0.129533
C       0.068604   -0.020648   -0.075735
C      -1.352503   -0.569209    0.028403
O      -2.062775   -0.100321   -1.119519
C      -3.320954   -0.701558   -1.264774
O      -3.214223   -2.073226   -1.523286
C      -2.638881   -2.773420   -0.433215
C      -1.403298   -2.092497    0.155059
O      -0.561263   -2.715233    0.755400
H      -0.519295    1.631459   -0.859798
H       0.554902   -0.464459   -0.957607
H       0.634839   -0.319379    0.808246
H      -1.825623   -0.157883    0.939214
H      -3.932772   -0.525592   -0.359397
H      -3.794715   -0.248000   -2.136681
H      -3.367421   -2.882465    0.390806
H      -2.369273   -3.774295   -0.776059
