17

C      -0.380741    1.501456    0.087412
C       0.013112    0.050592    0.003500
N      -0.042661   -0.568018   -1.094537
C       0.149733   -1.980085   -1.327602
C       0.855876   -2.896273   -0.367064
C       1.421135   -2.606721    0.798931
C       1.473484   -1.255684    1.446283
O       0.343730   -0.404859    1.254658
H       0.472874    2.109561    0.406180
H      -0.743353    1.850193   -0.878414
H      -1.160961    1.628890    0.845107
H      -0.851574   -2.397739   -1.523353
H       0.660585   -2.078066   -2.298203
H       0.908625   -3.924487   -0.723928
H       1.928698   -3.394689    1.350759
H       1.545360   -1.368094    2.532415
H       2.377307   -0.716675    1.122415
