20

C      -0.204233    1.419870    1.102344
C       0.082128   -0.028453    0.721091
C       0.381826   -0.421867   -0.729283
C       1.677124    0.069402   -1.290058
C       2.216014    1.460682   -1.228488
O       2.721323    2.065431   -0.314652
N       1.689679   -1.094149   -0.379322
C       1.434402   -0.738247    1.074216
C       2.542224   -0.093022    1.883003
H       0.617337    2.092199    0.855984
H      -1.105428    1.777430    0.591526
H      -0.386590    1.497191    2.179485
H      -0.747189   -0.647223    1.078007
H      -0.338074   -0.889961   -1.395711
H       1.820644   -0.299848   -2.307336
H       2.111430    1.948894   -2.225595
H       1.201660   -1.705238    1.531148
H       2.817182    0.891225    1.508965
H       2.226782   -0.005875    2.928995
H       3.430441   -0.734083    1.858305
