15

N       0.013315    1.323399    0.009382
C       1.244776    1.876147    0.000489
C       2.136514    0.803902   -0.013970
C       3.544400    0.657053   -0.028375
C       4.061272   -0.613456   -0.040306
C       3.216567   -1.762676   -0.038419
C       1.849450   -1.655598   -0.024623
C       1.286975   -0.356401   -0.012095
N      -0.017305   -0.018568    0.002368
H      -0.864396    1.818061    0.020560
H       1.389190    2.944407    0.004918
H       4.194026    1.525977   -0.029911
H       5.136613   -0.757192   -0.051483
H       3.677415   -2.745131   -0.048235
H       1.204952   -2.527164   -0.023149
