17

O       0.078831    1.169792   -0.589700
C       0.002913   -0.143954   -0.129819
C      -0.257300   -0.444436    1.320977
C      -1.327493   -0.741981    0.278977
C      -2.545579    0.100555    0.206436
C      -3.203520    0.534034   -0.935776
N      -4.275604    1.248120   -0.517914
N      -4.371100    1.328320    0.822390
C      -3.326199    0.636169    1.262384
H      -0.808341    1.548151   -0.545725
H       0.697552   -0.784408   -0.665195
H       0.252701   -1.278529    1.790383
H      -0.422645    0.410939    1.967310
H      -1.471036   -1.789961    0.028403
H      -2.997446    0.372550   -1.982540
H      -4.965524    1.712609   -1.083866
H      -3.157486    0.533180    2.324380
