19

C       0.009613    1.618710    0.019855
C       0.103313    0.105334    0.045522
O      -1.204230   -0.373068    0.384954
C       0.739923   -0.679822   -1.096065
C       2.235366   -0.820179   -0.776972
C       2.521793   -0.120183    0.558024
C       1.129981   -0.614789    0.979344
O       0.805582   -0.748353    2.305432
C       1.238180   -1.761308   -0.157550
H       0.958375    2.071311   -0.274320
H      -0.759252    1.932301   -0.692214
H      -0.269446    2.000194    1.007294
H      -1.246921   -1.298910    0.116250
H       0.365381   -0.790581   -2.106775
H       2.941040   -1.045264   -1.565511
H       3.309492   -0.645934    1.104716
H       2.711897    0.958115    0.584085
H      -0.163529   -0.750196    2.336453
H       1.165739   -2.839182   -0.172325
