20

C       0.051228    1.626801    0.027833
C       1.586483    1.418003    0.082981
C       1.312578   -0.016886    0.622327
C      -0.112698    0.082693   -0.005014
C      -0.145631   -0.508270   -1.409936
N      -0.277984    0.402532   -2.565507
C       0.977035   -0.330962   -2.368760
C       2.261229    0.427576   -2.061952
O       2.190157    1.538423   -1.198210
H      -0.333090    2.046936    0.961639
H      -0.322787    2.187656   -0.827683
H       2.156766    2.086393    0.734042
H       1.959732   -0.837759    0.305381
H       1.281310    0.000787    1.715072
H      -0.934925   -0.329635    0.585649
H      -0.665476   -1.462458   -1.476922
H      -0.833700   -0.022938   -3.301719
H       1.175697   -1.171268   -3.036137
H       2.994924   -0.311334   -1.697486
H       2.661577    0.833837   -2.998337
