16

C      -0.130152    1.509381    0.070883
C       0.080640   -0.010088   -0.027440
O       0.870379   -0.498481    1.049170
C      -1.240890   -0.690425   -0.008334
N      -2.275897   -1.201935    0.041529
C       0.810501   -0.373270   -1.320754
C       2.291916   -0.353738   -1.361911
N       1.550956   -1.628073   -1.430615
H       0.846047    1.998874    0.091987
H      -0.698745    1.879881   -0.786451
H      -0.682311    1.767212    0.979706
H       0.394968   -0.351398    1.873743
H       0.246340   -0.102021   -2.209721
H       2.797870   -0.064320   -2.278186
H       2.818951   -0.118537   -0.443145
H       1.581663   -2.069666   -0.513672
