24

C      -0.215600    1.549263   -0.504571
C      -0.017153    0.207718    0.211151
C      -1.310163   -0.570337    0.314110
N      -1.738397   -1.335234   -0.877523
C      -1.438937   -2.052937    0.379175
C      -0.224991   -2.959877    0.344122
C      -2.637362   -2.586424    1.168769
C      -3.239210   -3.864129    0.577520
O      -2.323318   -2.752488    2.549042
H       0.724829    2.104046   -0.576612
H      -0.595239    1.389379   -1.518560
H      -0.935268    2.181322    0.027904
H       0.729207   -0.381971   -0.328518
H       0.377416    0.376733    1.221497
H      -2.093861   -0.025703    0.843333
H      -2.744692   -1.253813   -1.009851
H       0.576816   -2.521823   -0.250749
H       0.158709   -3.134674    1.355526
H      -0.467201   -3.929091   -0.104413
H      -3.408122   -1.804471    1.155655
H      -2.529714   -4.698191    0.623888
H      -4.132878   -4.149469    1.139007
H      -3.515515   -3.724545   -0.472421
H      -1.812797   -3.563812    2.640309
