23

C      -0.357357    1.519742    0.638244
C      -0.211659    0.002284    0.527841
C       0.086466   -0.553260   -0.900548
C       1.178360   -1.602759   -0.589299
C       2.533587   -0.891758   -0.369105
C       2.356985   -0.353068    1.085678
C       2.833400    1.078294    1.331237
C       0.875857   -0.739625    1.353594
O       0.829828   -2.039000    0.737607
H       0.460979    2.059217    0.156168
H      -1.284884    1.842961    0.153692
H      -0.405159    1.845207    1.683271
H      -1.153780   -0.441166    0.868196
H      -0.798080   -1.014125   -1.347082
H       0.442115    0.221778   -1.586653
H       1.204622   -2.463259   -1.258153
H       3.370452   -1.590724   -0.441923
H       2.702606   -0.090903   -1.095730
H       2.928188   -1.005898    1.754730
H       2.453135    1.783597    0.588920
H       2.534114    1.438531    2.321670
H       3.926826    1.121886    1.285497
H       0.632824   -0.830820    2.414530
