21

C       0.271067    1.589000   -0.164166
C      -0.022961    0.100148    0.036992
O      -1.417615   -0.130726    0.171604
C       0.623375   -0.751059   -1.075744
O       1.993378   -0.845492   -0.720752
C       2.088370   -0.892847    0.707481
C       0.721774   -0.476077    1.248425
C       0.526072    0.030834    2.647658
C       0.000445   -1.329503    2.257527
H       1.342712    1.752914   -0.306535
H      -0.241173    1.966610   -1.058518
H      -0.061476    2.172692    0.698420
H      -1.875990    0.447562   -0.445651
H       0.130666   -1.735514   -1.099621
H       0.565956   -0.299815   -2.071616
H       2.361807   -1.905186    1.037907
H       2.892377   -0.209918    1.008712
H       1.393258    0.087800    3.298421
H      -0.201659    0.820942    2.804053
H      -1.070849   -1.440655    2.146402
H       0.519679   -2.205987    2.632756
