18

C      -0.183362    1.515574    0.058243
C       0.027706    0.003012    0.047693
C       0.771417   -0.486016    1.286418
O       1.266355    0.256292    2.115371
N       0.842006   -1.843041    1.427923
C       0.652383   -2.956861    0.487688
C       1.492440   -3.804490    1.474541
O       1.837539   -4.943254    1.510372
C       1.686821   -2.572980    2.381096
H       0.771967    2.037369    0.146126
H      -0.679798    1.841108   -0.860099
H      -0.797414    1.817564    0.910450
H      -0.928098   -0.530249   -0.027656
H       0.603916   -0.299200   -0.838018
H      -0.383216   -3.291706    0.355432
H       1.116477   -2.826154   -0.498307
H       2.716543   -2.202119    2.449034
H       1.275673   -2.663995    3.392457
