19

C      -0.070789    1.513918   -0.001096
C      -0.025539    0.017134   -0.001229
C       0.003048   -0.801982   -1.085288
O       0.060790   -2.108952   -0.712586
C       0.070349   -2.121023    0.645755
C       0.019127   -0.858809    1.149979
C      -0.003745   -0.463046    2.596049
C      -1.412186   -0.150263    3.107381
O      -1.298126    0.240758    4.466350
H       0.766418    1.941337    0.562934
H      -0.019381    1.908384   -1.019759
H      -0.990864    1.896796    0.455591
H      -0.004221   -0.616105   -2.147227
H       0.125808   -3.094084    1.106903
H       0.414195   -1.262572    3.216768
H       0.621584    0.421915    2.763087
H      -1.863849    0.648051    2.497119
H      -2.046110   -1.043570    2.994012
H      -2.179909    0.425485    4.802146
