21

C       0.734918    1.608193   -0.110918
C       0.004890    0.271666    0.065864
C       0.060216   -0.567385   -1.192004
N       1.288392   -1.349764   -1.430027
C       0.001379   -2.053307   -1.248909
C      -0.086735   -2.958694   -0.040158
N       0.790069   -4.108768   -0.195407
C       0.354567   -5.394567   -0.178749
O      -0.792909   -5.747705   -0.000349
H       1.787915    1.439834   -0.357049
H       0.290899    2.199781   -0.919439
H       0.690539    2.207710    0.803050
H       0.455088   -0.279244    0.896651
H      -1.045363    0.449321    0.330620
H      -0.364166   -0.065562   -2.062694
H       1.546226   -1.325960   -2.412399
H      -0.451121   -2.480725   -2.142678
H       0.179000   -2.413047    0.870356
H      -1.098732   -3.351469    0.081446
H       1.762428   -3.922197   -0.386000
H       1.185722   -6.108556   -0.347092
