18

C       0.127455    1.551043   -0.142755
C       0.033380    0.045309    0.024851
O       0.613962   -0.597759   -1.135666
C       1.130832   -1.821422   -0.807156
N       1.407907   -2.741781   -1.623244
C       1.365276   -1.883783    0.689434
O       2.698595   -1.445408    1.034312
C       2.203142   -0.184337    1.533402
C       0.740681   -0.581725    1.234634
H       1.166580    1.880286   -0.220004
H      -0.395995    1.862873   -1.050221
H      -0.337088    2.053937    0.711221
H      -1.026103   -0.246482    0.057159
H       1.185345   -2.456220   -2.579270
H       1.124773   -2.859818    1.114908
H       2.438592   -0.050254    2.595265
H       2.603894    0.665973    0.970333
H       0.090246   -0.649357    2.105773
