18

C      -0.017496    1.612678    0.231160
C       1.459616    1.228878    0.108442
O       1.165000   -0.009246    0.911298
C       0.092459    0.100749   -0.120979
C      -0.956153   -0.823141   -0.710955
C      -0.860738   -0.407735   -2.199055
N      -0.968516    1.045225   -2.435620
C       0.373522    0.429012   -2.467480
C       1.162518    0.368282   -1.174001
H      -0.344746    1.810919    1.252979
H      -0.454742    2.274098   -0.512036
H       2.362082    1.769878    0.395064
H      -0.671148   -1.875365   -0.604939
H      -1.959933   -0.684462   -0.300513
H      -1.258316   -1.082031   -2.950965
H      -1.273160    1.209699   -3.391225
H       0.884032    0.360505   -3.423016
H       1.881737   -0.453313   -1.248064
