17

N      -0.079671    1.296641    0.270336
C      -0.045190    0.040156    0.096856
N      -1.205179   -0.728571   -0.022592
C      -2.450942   -0.079328   -0.212052
N      -3.585388   -0.635456   -0.286007
C      -3.632310   -2.088677   -0.172723
C      -2.351106   -2.766053   -0.677834
C      -1.144900   -2.146879   -0.024276
N      -0.212049   -2.864869    0.453603
H       0.862615    1.680449    0.276590
H       0.860951   -0.561928   -0.011494
H      -2.344785    0.998732   -0.272338
H      -3.815228   -2.347682    0.879782
H      -4.497485   -2.451532   -0.735317
H      -2.340630   -3.838227   -0.479353
H      -2.278173   -2.615369   -1.762867
H       0.518726   -2.320409    0.911441
