18

O      -0.052627    1.444429   -0.030866
C       0.020811    0.026282   -0.019825
C      -1.407595   -0.517876    0.043386
C      -1.422984   -2.045002   -0.100487
O      -2.708701   -2.577076    0.160220
C      -3.119971   -2.383243    1.499944
C      -2.846098   -0.994887    2.008038
C      -2.090277   -0.133195    1.332603
H       0.841162    1.793872    0.026509
H       0.520175   -0.351446   -0.927255
H       0.592442   -0.336518    0.849479
H      -1.950711   -0.074696   -0.803441
H      -1.167867   -2.351133   -1.119480
H      -0.677948   -2.489241    0.583073
H      -4.195941   -2.594954    1.518945
H      -2.640180   -3.127791    2.163424
H      -3.300686   -0.726052    2.958244
H      -1.918662    0.875398    1.695290
