18

C       0.516108    1.459933   -0.361116
C       0.041436    0.056206    0.015330
O       0.318166   -0.882741   -1.040553
C       1.283882   -1.811508   -0.628209
O       2.553692   -1.564201   -1.242636
C       2.677155   -1.950615   -2.530835
N       3.728375   -1.678593   -3.172840
C       1.436133   -1.604194    0.852373
C       0.740414   -0.532851    1.210747
H       1.597673    1.463773   -0.519302
H       0.025081    1.787041   -1.281533
H       0.270582    2.173797    0.432167
H      -1.048739    0.064741    0.154568
H       0.951230   -2.815017   -0.929132
H       1.804941   -2.500549   -2.909242
H       3.663455   -2.055220   -4.116553
H       2.070976   -2.227384    1.466429
H       0.678378   -0.096255    2.199344
