19

C       0.164048    1.580703   -0.137890
C       0.067800    0.058600   -0.011917
O       0.779170   -0.424964    1.111803
C      -1.405009   -0.481485    0.002742
C      -1.397317   -2.035864    0.050398
C      -2.164237   -0.027154    1.258193
O      -1.650660    0.413679    2.256640
C      -2.160347   -0.029616   -1.163183
C      -2.805897    0.337993   -2.109006
H       1.218301    1.868221   -0.162071
H      -0.317021    1.933869   -1.053557
H      -0.305498    2.079148    0.715172
H       0.552104   -0.398340   -0.882778
H       0.354128   -0.030772    1.885929
H      -0.753300   -2.367452    0.866275
H      -2.406965   -2.433081    0.188842
H      -1.007662   -2.424285   -0.893983
H      -3.264284   -0.167686    1.195054
H      -3.363007    0.664103   -2.952711
