23

C      -0.389786    1.865076   -0.213159
C      -0.174222    0.369935   -0.472948
C      -1.336369   -0.488816    0.015061
C      -1.276622   -2.053504   -0.079103
C       0.113261   -2.684821   -0.120808
C      -1.969707   -2.102451    1.326305
O      -1.506571   -2.999521    2.299256
C      -1.605506   -0.601119    1.539509
O      -0.390706   -0.475867    2.277891
H       0.442941    2.458575   -0.603496
H      -1.307866    2.226222   -0.690857
H      -0.467349    2.065415    0.859956
H      -0.038001    0.197946   -1.548492
H       0.751824    0.050400    0.013839
H      -2.260283   -0.138113   -0.460829
H      -1.883837   -2.473998   -0.886959
H       0.775434   -2.275386    0.647707
H       0.042673   -3.765299    0.037712
H       0.590636   -2.516122   -1.091239
H      -3.049239   -2.254741    1.239651
H      -0.618473   -2.697478    2.529277
H      -2.376400    0.054196    1.961669
H      -0.621141   -0.442380    3.211539
