19

C      -0.008427    1.555568    0.077952
C      -0.051055    0.028003   -0.033935
C       0.725217   -0.526674   -1.230007
C       2.249673   -0.242489   -1.191411
N       2.798780   -1.342203   -1.962440
C       1.982387   -2.438873   -2.066876
O       2.274598   -3.496694   -2.578983
C       0.659913   -2.055789   -1.395005
H       1.014300    1.923294    0.213822
H      -0.414045    2.029513   -0.822841
H      -0.598074    1.904371    0.930945
H       0.343738   -0.421918    0.887204
H      -1.094562   -0.301661   -0.109727
H       0.332509   -0.068929   -2.147121
H       2.506360    0.724009   -1.635887
H       2.622209   -0.242819   -0.154753
H       3.771578   -1.413220   -2.215780
H       0.619977   -2.563757   -0.422571
H      -0.189634   -2.409596   -1.981778
