21

C       0.073508    1.502254   -0.243645
C      -0.042288    0.020913    0.141471
C      -1.459310   -0.483787    0.116344
C      -2.552733   -0.115881    1.130532
C      -3.274675   -1.450236    0.756166
O      -4.271290   -1.251834   -0.235856
C      -3.600776   -0.729400   -1.388916
C      -2.119341   -1.005679   -1.155932
C      -1.987216   -1.913211    0.033393
H       1.112827    1.841856   -0.199944
H      -0.296237    1.674315   -1.259862
H      -0.512182    2.133007    0.433381
H       0.571564   -0.585270   -0.537129
H       0.375181   -0.128178    1.146596
H      -2.161127   -0.141447    2.152674
H      -3.130369    0.803867    0.987778
H      -3.701369   -2.046745    1.561051
H      -3.976846   -1.249260   -2.278153
H      -3.819716    0.341516   -1.502357
H      -1.468814   -1.156709   -2.010095
H      -1.487648   -2.872674    0.056834
