17

O      -0.007631    1.422883   -0.062968
C      -0.041489    0.035747   -0.053221
C       0.810309   -0.501390    1.067392
O       1.436092    0.231866    1.798033
C      -1.391987   -0.681710   -0.118519
C      -1.786415   -0.783274   -1.595556
C      -0.684005   -0.109569   -2.409561
C       0.298642   -0.739112   -1.387783
C      -0.822971   -1.777664   -1.001096
H       0.614296    1.677951    0.638483
H       0.842619   -1.602582    1.176679
H      -2.126246   -0.771173    0.671695
H      -2.822060   -0.944765   -1.864375
H      -0.574473   -0.578194   -3.391220
H      -0.677696    0.979877   -2.499133
H       1.332570   -0.953968   -1.649426
H      -0.840405   -2.851800   -0.901238
