23

C      -0.457656   -0.364893    1.233157
C       1.025205   -0.539963    0.881582
C       1.283633   -0.726223   -0.607658
C       1.278919    0.586933   -1.380965
O       2.431366    1.346309   -1.049612
O       2.437698   -1.537983   -0.933690
C       1.132541   -2.040878   -1.285230
C       0.692606   -3.273591   -0.516150
C       0.868212   -2.166731   -2.775370
H      -0.899817    0.492235    0.714803
H      -1.041569   -1.251197    0.964532
H      -0.581889   -0.195237    2.306805
H       1.590377    0.345041    1.195446
H       1.448908   -1.384399    1.429891
H       1.217452    0.418460   -2.461727
H       0.415878    1.195681   -1.092454
H       3.183462    0.760257   -1.199315
H       0.858684   -3.183736    0.556738
H      -0.370802   -3.471706   -0.688820
H       1.252603   -4.144689   -0.873346
H       1.240143   -3.133234   -3.132625
H      -0.206074   -2.127990   -2.986079
H       1.367126   -1.388298   -3.351776
