18

C      -0.147755    1.576773    0.023361
C       0.027991    0.067142    0.029697
C       1.189564   -0.643092   -0.740445
C       2.179338   -0.165605    0.364799
C       0.915252   -0.658094    1.119491
C       0.908239   -1.887459    0.150361
C       0.671918   -0.679856    2.586646
O       1.431243   -0.237474    3.413673
H       0.782869    2.124267    0.187570
H      -0.558946    1.901036   -0.939152
H      -0.855427    1.885679    0.800160
H      -0.942438   -0.420980   -0.118250
H       1.356677   -0.637967   -1.818389
H       3.078640   -0.770225    0.502334
H       2.415935    0.896316    0.417485
H      -0.048698   -2.395366    0.004072
H       1.729987   -2.595877    0.279329
H      -0.298229   -1.142730    2.886644
