15

N      -0.176936    1.224536    0.018510
C      -0.041646   -0.106579   -0.222879
N       1.029036   -0.564548   -0.898065
H       1.850442    0.011541   -0.978150
H       1.094586   -1.590624   -0.909538
C      -1.024734   -0.990689    0.253388
O      -2.107405   -0.383469    0.852615
C      -0.864460   -2.391257    0.131463
O       0.100191   -2.982222   -0.421440
C      -1.943163   -3.263780    0.715304
O      -2.959811   -2.867159    1.257645
H       0.284411    1.878323   -0.592725
H      -1.079871    1.499557    0.375046
H      -2.704410   -1.097914    1.144922
H      -1.727597   -4.344136    0.599743
