17

C       0.037901    1.468281   -0.485970
C      -0.064163   -0.013987   -0.184559
C      -0.295979   -0.480427    1.229782
C      -1.387619   -0.626711    0.197904
C       1.399272    2.038928   -0.160995
C       1.585054    3.425215    0.283329
O       1.658247    2.342524    1.213221
H      -0.178527    1.650663   -1.547881
H      -0.715108    2.017357    0.092104
H       0.589840   -0.637820   -0.789627
H       0.214502   -1.374601    1.569638
H      -0.409694    0.281797    1.992401
H      -2.248055    0.031057    0.270270
H      -1.621813   -1.619889   -0.169310
H       2.239616    1.556935   -0.665718
H       2.524682    3.940377    0.087732
H       0.716073    4.074178    0.389518
