23

C       0.063694    1.511682   -0.307662
C      -0.012406    0.032194    0.022328
C      -1.299491   -0.625320   -0.443049
C       1.254790   -0.792192   -0.041885
C       0.605975   -0.504429    1.296591
C       1.293001    0.356155    2.339975
C       2.214894   -0.463963    3.213320
C       2.392814   -0.194777    4.644618
O       1.586328   -1.287967    4.201825
H       1.012969    1.961052   -0.005270
H      -0.041267    1.668178   -1.387804
H      -0.742409    2.070028    0.183658
H      -1.417606   -0.535048   -1.529704
H      -1.318039   -1.690653   -0.193258
H      -2.174324   -0.157622    0.024520
H       1.203525   -1.799659   -0.441921
H       2.181132   -0.273355   -0.272246
H       0.071580   -1.340680    1.741547
H       1.879845    1.151539    1.865827
H       0.548367    0.843740    2.981400
H       3.030529   -0.962832    2.686296
H       3.323320   -0.468895    5.140347
H       1.849473    0.629422    5.106140
