11

F       0.125609    0.057712    0.001916
C      -0.036473    1.355474    0.010757
C      -1.217172    1.999425    0.030537
F      -2.367930    1.337203    0.043278
N      -1.278748    3.355409    0.038280
C      -0.179042    4.026969    0.026299
C       1.148887    3.416123    0.004642
N       2.231628    4.066944   -0.007241
O       1.129129    2.009752   -0.002207
H      -0.209810    5.111565    0.032223
H       3.048558    3.457218   -0.021766
