16

O       0.196785    1.267999   -0.267029
C       0.164291   -0.114292   -0.035747
C       0.131646   -0.563933    1.412574
N       0.885006   -0.368352    2.393297
O      -1.075713   -1.216957    1.289235
C      -1.238914   -0.755027   -0.088519
C      -2.496700    0.040287   -0.444693
O      -2.814737   -0.892866   -1.503120
C      -1.724044   -1.760738   -1.134330
H       0.836760    1.648837    0.345552
H       0.905253   -0.653154   -0.642789
H       0.515992   -0.777834    3.252958
H      -3.251012    0.046683    0.351309
H      -2.325199    1.055666   -0.813745
H      -1.045213   -1.960637   -1.971914
H      -2.066350   -2.709018   -0.701350
