17

C       0.298841    1.337843   -0.016313
C      -0.071680   -0.150308   -0.043148
C       0.867738   -0.982336   -0.997559
C       1.727505   -1.262760    0.237119
O       2.904654   -1.378871    0.434257
C       0.581453   -0.933005    1.191995
O       0.871083   -0.284370    2.385277
C      -1.495154   -0.362265   -0.216580
C      -2.675821   -0.548011   -0.351276
H       1.382870    1.468122    0.071915
H      -0.030934    1.831735   -0.933883
H      -0.171965    1.830714    0.837011
H       0.378197   -1.880604   -1.381505
H       1.351437   -0.447611   -1.816685
H      -0.034372   -1.818629    1.391060
H       1.807395   -0.050264    2.370759
H      -3.718977   -0.707269   -0.470504
