19

C       0.377814    1.429615   -0.200881
C      -0.153899    0.013051    0.024082
O      -1.575096    0.000072    0.071161
C       0.417448   -0.972845   -1.017085
O       1.704283   -1.311235   -0.528268
C       1.577998   -1.495380    0.891410
C       0.374963   -0.611814    1.335974
C       1.399925   -2.909081    1.231823
C       1.252198   -4.068084    1.514192
H       1.470572    1.426350   -0.253100
H       0.002739    1.839631   -1.147168
H       0.064296    2.093436    0.610043
H      -1.903426    0.515694   -0.672855
H      -0.242110   -1.851331   -1.080088
H       0.544600   -0.544653   -2.015675
H       2.519111   -1.143705    1.326799
H       0.678734    0.143488    2.063335
H      -0.416393   -1.217350    1.778741
H       1.127303   -5.093361    1.761401
