23

C       0.084006    1.451238   -0.238308
C      -0.045181   -0.051903    0.051000
C       0.778996   -0.441111    1.287558
C      -1.513109   -0.517518    0.142152
C      -2.303868    0.117752    1.290317
C      -2.308211   -0.425315   -1.210851
C      -2.703273   -1.895082   -1.024350
O      -3.525276   -2.603873   -1.529050
C      -1.701198   -2.078132    0.121690
H       1.128699    1.717966   -0.428187
H      -0.499288    1.747153   -1.116232
H      -0.256724    2.055143    0.609360
H       0.386109   -0.586588   -0.808556
H       1.838565   -0.214891    1.130345
H       0.457004    0.111769    2.176369
H       0.696908   -1.509900    1.510039
H      -2.351386    1.206842    1.194703
H      -3.334620   -0.253643    1.299203
H      -1.864292   -0.119437    2.263985
H      -3.128681    0.294119   -1.279920
H      -1.659924   -0.299580   -2.085833
H      -0.808848   -2.616955   -0.217517
H      -2.078684   -2.564885    1.025074
