15

C      -0.007197    1.564069   -0.013503
O       1.386934    1.941765   -0.028831
C       2.103103    0.717264   -0.002565
C       1.267928   -0.210017   -0.888762
C       0.043062    0.024956    0.021658
C       0.657658   -0.365536    1.379019
O       2.013308    0.123847    1.283039
H      -0.494856    1.994889    0.868728
H      -0.502268    1.949836   -0.913755
H       3.148908    0.911920   -0.232156
H       1.144306    0.162644   -1.907275
H       1.627788   -1.240547   -0.894665
H      -0.889950   -0.478108   -0.229966
H       0.154114    0.111466    2.227938
H       0.669465   -1.450960    1.540502
