21

C      -0.046799    1.589435   -0.102738
C      -0.014681    0.057860   -0.019238
O       0.709706   -0.241858    1.182373
C      -1.434261   -0.568528    0.045893
C      -2.248428   -0.128851    1.243511
C      -3.244888    1.000666    1.141952
C      -3.726804   -0.420448    1.291739
C       0.695340   -0.500943   -1.181411
C       1.266119   -0.995274   -2.117344
H       0.972865    1.975601   -0.161568
H      -0.599677    1.915624   -0.986993
H      -0.527920    1.995911    0.788908
H       0.912925   -1.183758    1.171994
H      -1.966913   -0.338192   -0.884564
H      -1.307181   -1.659470    0.063281
H      -1.713632   -0.209092    2.184555
H      -3.351557    1.674523    1.985070
H      -3.375554    1.478225    0.176173
H      -4.177723   -0.894936    0.425828
H      -4.162548   -0.722220    2.237837
H       1.779206   -1.418489   -2.945517
