21

C      -0.252130    1.222093   -1.409528
C      -0.036752   -0.057493   -0.631379
C       1.313100   -0.615022   -0.308571
C       2.612629    0.038835   -0.724421
C       0.438180   -0.067285    0.830993
C       0.779336    1.181750    1.561568
O       1.300867    2.159526    1.070272
C       0.407536    1.141048    3.045171
O       0.759989    2.350044    3.660476
H       0.455570    1.999896   -1.124445
H      -0.152321    1.030445   -2.483762
H      -1.261109    1.610816   -1.235431
H      -0.802295   -0.807537   -0.817481
H       1.362416   -1.701645   -0.299788
H       2.579880    1.122492   -0.616200
H       3.440952   -0.331507   -0.111083
H       2.839281   -0.205046   -1.768364
H      -0.024331   -0.822775    1.460275
H      -0.674785    0.928226    3.108288
H       0.920111    0.269109    3.489848
H       0.513063    2.294576    4.588032
