17

N      -0.421370   -1.108614   -0.129596
C      -0.263875    0.036888   -0.072513
C      -0.079113    1.452491   -0.020389
C       0.507201    2.101351    1.264704
N       0.941162    1.240728    2.317168
C       2.388159    1.055225    2.360282
C       2.819718    0.470277    1.022240
O       2.499999    1.343392   -0.069931
C       1.329602    2.071979    0.017736
H      -0.823066    2.024522   -0.565618
H       0.051508    3.048193    1.547136
H       0.533387    1.478112    3.208469
H       2.946887    1.987505    2.552757
H       2.630617    0.343159    3.154730
H       3.904113    0.340171    0.979085
H       2.334538   -0.501107    0.874913
H       1.421203    2.989641   -0.554433
