16

O      -0.116251   -0.006551   -0.016261
C      -0.063709    1.186409   -0.022712
O       1.077164    1.866600    0.189975
C       1.039452    3.287362    0.162304
C       1.826231    4.030327    1.269967
C       3.134647    3.549310    0.566271
C       2.188034    4.003842   -0.589500
C       1.838175    5.240119    0.289956
H      -0.933212    1.848678   -0.201192
H       0.020644    3.635139   -0.040854
H       1.604778    4.040934    2.337068
H       4.019946    4.168219    0.729723
H       3.363860    2.486252    0.626005
H       2.382900    3.984228   -1.661653
H       0.884524    5.740391    0.097267
H       2.645642    5.959054    0.436844
