17

O       0.230624    1.384382   -0.121076
C       0.085260   -0.014217   -0.063691
C       0.358858   -0.647961    1.361124
C      -1.137076   -1.009070    1.431110
C      -2.299523   -0.700904    2.355640
C      -3.224881    0.089404    1.427586
C      -2.705335    0.302544    0.208986
C      -1.397277   -0.391051    0.121145
O      -1.436830   -1.820171    0.293111
H       1.171131    1.588325   -0.135731
H       0.579295   -0.515734   -0.905801
H       1.060752   -1.482809    1.432204
H       0.633758    0.143196    2.063454
H      -2.786309   -1.597381    2.756511
H      -1.980825   -0.098353    3.215104
H      -4.222054    0.388040    1.735028
H      -3.181446    0.845567   -0.596949
