18

O       0.299278    0.945704    0.547476
C      -0.162135    0.225452   -0.582823
C      -1.470082   -0.488705   -0.330447
C      -1.911409   -1.642597   -1.229110
C      -1.485797   -1.893213    0.172664
C      -0.394878   -2.788596    0.753758
C      -1.472849   -3.148189    1.758996
N      -1.537359   -3.900631    2.757653
O      -2.427333   -2.324395    1.185890
H       0.355873    0.333257    1.288016
H      -0.287422    0.970335   -1.375868
H       0.590661   -0.498201   -0.938469
H      -2.268513    0.147390    0.042530
H      -2.968438   -1.721902   -1.456826
H      -1.247288   -1.959491   -2.027988
H      -0.068309   -3.617428    0.123044
H       0.479505   -2.289200    1.176999
H      -2.463911   -3.872299    3.186506
