21

C      -0.036141    1.550275    0.027887
C       1.461469    1.995242    0.007488
C       2.229930    0.658722   -0.056241
C       2.015481   -0.006604   -1.419099
C       1.657212   -1.462114   -1.200259
C       1.757117   -1.729738    0.295485
C       1.346610   -0.326763    0.760577
C       0.048371    0.010534   -0.026454
C       0.556989   -0.440011   -1.399170
H      -0.533135    1.881635    0.945537
H      -0.608804    1.957094   -0.810895
H       1.697938    2.642522   -0.842281
H       1.719761    2.550948    0.914881
H       3.275384    0.722810    0.256571
H       2.501039    0.345137   -2.320524
H       1.870355   -2.213798   -1.949347
H       1.066330   -2.508521    0.637601
H       2.769362   -2.002508    0.614370
H       1.308669   -0.149628    1.836323
H      -0.854284   -0.504189    0.312964
H      -0.064304   -0.417195   -2.285470
