21

C       0.299659    1.463402    0.366457
C      -0.130222    0.035603    0.005697
O      -1.534862   -0.066793   -0.165447
C       0.607928   -0.496039   -1.223261
C       2.031480   -1.029161   -1.100608
C       0.932176   -1.994690   -1.381891
C       0.455905   -3.016121   -0.373061
C       0.263406    0.143696   -2.511326
O      -0.634788    0.941689   -2.677796
H       1.370291    1.509587    0.591958
H       0.090188    2.153908   -0.454975
H      -0.255372    1.797238    1.247194
H       0.101313   -0.613518    0.856634
H      -1.743975    0.470129   -0.942272
H       2.743286   -0.784419   -1.882866
H       2.448183   -1.012878   -0.098265
H       0.878459   -2.344776   -2.410675
H       0.657477   -2.704588    0.654705
H      -0.619869   -3.190983   -0.466557
H       0.973903   -3.967381   -0.534072
H       0.890044   -0.182863   -3.373589
