11

O      -0.007214    1.282277    0.007602
C      -0.054732   -0.044526    0.000860
N      -1.200450   -0.632014    0.003964
C      -1.174903   -2.016510   -0.003475
N      -2.148393   -2.830394   -0.002496
N       0.126986   -2.572996   -0.013407
N       1.259740   -1.906637   -0.016033
N       1.219365   -0.631748   -0.009120
H       0.928599    1.532218    0.003862
H      -3.023766   -2.309414    0.004982
H       0.217089   -3.580374   -0.019186
