19

C      -0.113404    1.513481    0.215595
C       0.110206    0.002083    0.114008
C       0.667132   -0.470714   -1.229860
C       0.897312   -1.992075   -1.401857
N      -0.423726   -2.634809   -1.280174
C      -0.004555   -2.050307   -2.596676
C      -0.224119   -0.581132   -2.491120
N      -0.761000    0.191401   -3.338300
O      -0.650399    1.544237   -2.961629
H       0.820765    2.064272    0.056897
H      -0.827247    1.859938   -0.534452
H      -0.491720    1.779520    1.207760
H       0.821043   -0.313214    0.890241
H      -0.820131   -0.537690    0.312815
H       1.569477    0.093458   -1.497243
H       1.814062   -2.537210   -1.216372
H      -0.278583   -3.641765   -1.362403
H       0.036295   -2.658195   -3.490327
H      -1.096620    1.991943   -3.688288
