17

N      -0.085335    1.342544    0.657390
C       0.031226    0.263675   -0.151957
O       1.032230    0.005284   -0.792086
C      -1.191748   -0.671356   -0.246613
C      -1.616848   -1.033219   -1.719550
C      -1.692485   -2.526632   -1.319303
C      -0.855174   -2.198444   -0.059535
C      -2.313838   -0.239928    0.571234
N      -3.184740    0.136004    1.234780
H       0.701475    1.966440    0.731630
H      -0.923745    1.539331    1.177737
H      -2.518427   -0.548862   -2.096073
H      -0.772339   -0.824234   -2.377670
H      -2.710644   -2.833237   -1.067323
H      -1.270664   -3.248928   -2.019894
H       0.214212   -2.333844   -0.227228
H      -1.147726   -2.645680    0.891104
