15

C      -0.005148    1.378471   -0.004378
O       0.001404   -0.048665   -0.045754
C       0.635348   -0.576378   -1.100569
N       1.226226    0.062251   -2.081250
C       1.717274   -0.935877   -2.904369
N       2.473342   -0.583438   -4.027286
C       1.411758   -2.174513   -2.410091
N       0.703180   -1.918990   -1.225844
H       1.015628    1.770436    0.028147
H      -0.509755    1.790009   -0.883543
H      -0.545383    1.646010    0.904416
H       2.239844    0.352431   -4.333545
H       2.374822   -1.234578   -4.794737
H       1.620968   -3.174520   -2.746172
H       0.312049   -2.590784   -0.589564
