14

C      -0.046337    1.532319   -0.043408
C      -0.007382    0.032248   -0.028665
N      -0.087442   -0.637345   -1.171287
C      -0.049305   -1.977997   -1.121787
C       0.069507   -2.656576    0.078005
N       0.152045   -2.003109    1.246003
C       0.113734   -0.685114    1.184856
O       0.194156    0.012177    2.336637
H       0.865906    1.953895    0.393021
H      -0.150630    1.883404   -1.070811
H      -0.881439    1.910241    0.556505
H      -0.116025   -2.509423   -2.066030
H       0.100111   -3.741612    0.117879
H       0.270575   -0.642088    3.045573
