20

N       0.026157   -1.138034   -0.011520
C       0.013552    0.019293   -0.027229
C      -0.012901    1.460069   -0.034109
C       0.491505    2.133214   -1.300044
C       1.348259    2.169002   -0.066437
C       1.551391    3.469445    0.712433
C       0.422500    3.781521    1.708567
C      -0.958988    3.554784    1.087511
C      -1.169613    2.070189    0.760076
H       0.788714    1.495601   -2.124164
H      -0.012518    3.047671   -1.596243
H       2.202313    1.500628   -0.081567
H       2.504704    3.417757    1.247164
H       1.646181    4.299767    0.001448
H       0.522179    3.135785    2.590801
H       0.523366    4.812903    2.061769
H      -1.747852    3.876394    1.775098
H      -1.069821    4.170724    0.185590
H      -2.107113    1.918769    0.213525
H      -1.263507    1.515340    1.701061
