19

C       0.125841    1.527317    0.124828
C       0.026901    0.003729   -0.009165
C      -1.426263   -0.458051    0.005612
O      -1.783141   -1.542309    0.391785
C       0.682880   -0.517252   -1.300677
O      -0.001958    0.081314   -2.375192
C       2.234335   -0.473895   -1.299163
O       2.302158   -1.890181   -1.059989
C       0.895147   -2.054027   -1.333223
H       1.169381    1.854697    0.136332
H      -0.372661    2.022193   -0.712456
H      -0.338144    1.868361    1.055403
H       0.528419   -0.496203    0.826417
H      -2.159621    0.280914   -0.386018
H       0.362132   -0.255755   -3.200570
H       2.651341   -0.192385   -2.278697
H       2.736533    0.105531   -0.516637
H       0.381561   -2.652934   -0.576823
H       0.714015   -2.486589   -2.329031
