18

O      -0.170410    0.977625    1.536508
C      -0.018656    0.057208    0.515065
C      -0.613782   -1.306089    0.723415
C      -1.212559   -0.371722   -0.315295
N      -2.471495    0.246142   -0.076133
C      -3.848675   -0.258665   -0.204310
C      -4.332751    1.183843    0.112585
C      -2.835984    1.539263    0.190388
O      -2.182742    2.535436    0.412044
H      -0.614990    1.763700    1.172102
H       0.924798    0.112487   -0.029445
H      -0.084628   -2.186218    0.376559
H      -1.175652   -1.425856    1.642583
H      -1.024513   -0.611734   -1.360602
H      -4.090697   -0.624211   -1.207588
H      -4.107559   -1.021337    0.536229
H      -4.871652    1.689338   -0.690317
H      -4.872974    1.307333    1.052457
