21

C       0.302045    1.678032    0.490081
C       1.370120    0.765496   -0.058885
C       2.307008    0.090742    0.932944
C       1.400970   -0.681436    1.935930
C       1.124751   -0.020184    3.265716
C      -0.176093    0.063242    3.540314
C      -1.035516   -0.509613    2.439593
C      -0.025580   -0.786086    1.289195
C      -0.030762    0.240484    0.160115
H       0.357319    1.985800    1.528044
H      -0.091292    2.437201   -0.178118
H       1.742172    0.958276   -1.059641
H       2.954508   -0.612029    0.396809
H       2.967671    0.799674    1.445614
H       1.835139   -1.673396    2.115595
H       1.924390    0.310668    3.921155
H      -0.596782    0.475346    4.451830
H      -1.535582   -1.429091    2.773293
H      -1.832380    0.177372    2.129060
H      -0.191258   -1.777125    0.856919
H      -0.694117    0.060056   -0.679518
