19

C       0.795240    0.472075    0.821591
O      -0.308842    0.624640   -0.080744
C      -1.318284   -0.262043   -0.070955
N      -1.022423   -1.614072    0.235040
C      -0.022484   -2.395965   -0.330044
C      -0.229423   -3.885127   -0.104449
O       0.926354   -1.943822   -0.933342
N      -2.528233    0.028225   -0.299333
C      -2.901853    1.418719   -0.481925
H       1.291228    1.443852    0.837318
H       0.444704    0.229207    1.829711
H       1.481888   -0.293369    0.459172
H      -1.868785   -2.103140    0.491379
H      -0.484090   -4.103184    0.937009
H      -1.049659   -4.248793   -0.733366
H       0.684096   -4.410886   -0.379558
H      -3.888451    1.582469   -0.036913
H      -2.187106    2.128423   -0.048820
H      -2.990416    1.644456   -1.552062
