21

C      -0.360700    1.319352    0.237621
C       0.148122   -0.072161   -0.025097
O      -0.303141   -1.087245    0.898540
C       1.101787   -0.797591    0.837547
C       1.893662   -1.812270    0.036559
C       1.197183   -1.851440   -1.340721
C      -0.045897   -2.770249   -1.543543
C      -0.899174   -1.526786   -1.924969
C       0.259823   -0.601997   -1.447679
H       0.263323    2.064048   -0.267926
H      -1.384843    1.433636   -0.135066
H      -0.365233    1.533331    1.309418
H       1.519552   -0.359886    1.742942
H       2.933203   -1.472338   -0.049114
H       1.911707   -2.793760    0.523830
H       1.916088   -1.944241   -2.157458
H       0.053495   -3.539316   -2.313951
H      -0.376747   -3.238515   -0.615405
H      -1.079818   -1.445397   -2.999751
H      -1.850383   -1.411999   -1.400867
H       0.556532    0.198978   -2.130925
