19

O       0.800956    0.420807   -0.709103
C      -0.046487   -0.301583    0.145577
C      -0.033425   -0.028098    1.674954
C      -1.566913   -0.275630    1.680833
C      -1.575534   -0.025971    0.147703
N      -1.871344   -1.665680    1.986287
C      -2.198844   -1.965488    3.375309
C      -3.257546   -1.964026    2.326810
H       0.649971    1.359551   -0.555463
H       0.153226   -1.355600   -0.057545
H       0.581884   -0.665071    2.313718
H       0.196860    1.022989    1.881836
H      -2.167811    0.419913    2.288544
H      -1.783172    1.025723   -0.079114
H      -2.221113   -0.661200   -0.462273
H      -1.807353   -2.900509    3.765565
H      -2.205678   -1.141066    4.087012
H      -3.968001   -1.138634    2.341674
H      -3.652877   -2.897962    1.937826
