17

C       0.010307    1.440189    0.035161
C       0.021332   -0.013599   -0.000378
C       0.047455   -1.219140   -0.030980
C       0.018199   -2.635824   -0.063057
N       1.138689   -3.366743   -0.159302
N       0.703393   -4.634151   -0.159675
C      -0.647302   -4.742560   -0.067856
C      -1.144981   -3.460675   -0.001721
C      -2.568211   -3.015812    0.109154
H       0.744137    1.825216    0.752180
H       0.251271    1.866005   -0.945651
H      -0.973287    1.822498    0.329764
H       1.378452   -5.376618   -0.225314
H      -1.142133   -5.701233   -0.056746
H      -2.735847   -2.434545    1.022595
H      -2.852890   -2.373609   -0.731500
H      -3.250213   -3.870304    0.125242
