24

C      -0.507218    1.198401    0.085377
N      -0.077908   -0.178196    0.271302
C       1.270159   -0.544503   -0.152509
C       0.910118   -0.532709    1.298793
C       1.525975    0.528225    2.194415
C       0.613350   -1.862688    1.983638
C      -0.353761   -1.762459    3.148197
C      -1.831443   -1.602615    2.887501
C      -1.298982   -2.899399    3.446103
H       0.295799    1.949370    0.146376
H      -0.969921    1.289010   -0.903136
H      -1.265298    1.446967    0.835317
H       1.363851   -1.480282   -0.700087
H       1.925426    0.251064   -0.508028
H       1.834412    1.416624    1.640160
H       0.827612    0.843052    2.977271
H       2.416632    0.126302    2.690010
H       0.196587   -2.541401    1.231579
H       1.558221   -2.308014    2.326281
H       0.032665   -1.240131    4.019401
H      -2.408065   -0.960442    3.544550
H      -2.149753   -1.584652    1.851508
H      -1.273604   -3.763240    2.789454
H      -1.509041   -3.138788    4.482891
