21

C      -0.349583    1.428813    0.106581
C       0.271474    0.042479   -0.098804
C       0.917657   -0.507094    1.155371
C       0.074209   -1.165778    2.232650
C       0.998797   -2.002882    1.401353
O       0.382063   -2.870430    0.492891
C       2.245667   -2.574642    2.001648
C       2.417747   -4.019038    2.189842
O       3.042016   -3.342640    1.085573
H       0.403749    2.160143    0.419957
H      -0.807187    1.797462   -0.816910
H      -1.124712    1.401924    0.879649
H      -0.489510   -0.665050   -0.443068
H       1.023677    0.093979   -0.897098
H       1.767624    0.069246    1.517358
H       0.312019   -0.996226    3.277638
H      -0.983139   -1.293507    2.024345
H       1.085352   -3.169638   -0.099805
H       2.816373   -1.894759    2.634832
H       3.103375   -4.386096    2.951372
H       1.603302   -4.685851    1.918734
