21

C       0.017781    1.515419    0.086236
C       0.000539   -0.000401   -0.052679
O       0.799564   -0.638131    0.956344
C      -1.415234   -0.582915   -0.025668
O      -2.150785   -0.044370   -1.116306
C      -3.172252   -0.981464   -1.433261
C      -2.509903   -2.354029   -1.286555
C      -1.477516   -2.141822   -0.161933
O      -0.255957   -2.744643   -0.538984
H       1.043262    1.892015    0.040991
H      -0.569049    1.972984   -0.713735
H      -0.422448    1.824157    1.043350
H       0.462562   -0.296960   -0.998090
H       0.479088   -0.345776    1.817297
H      -1.902667   -0.290528    0.924588
H      -4.022279   -0.871919   -0.739040
H      -3.526359   -0.763769   -2.443900
H      -3.221795   -3.153901   -1.072333
H      -1.956409   -2.613212   -2.192857
H      -1.834516   -2.569788    0.786111
H       0.400075   -2.457576    0.111977
