17

C      -0.035020    1.366170    0.037083
O       0.028696   -0.060118    0.049373
C       0.650122   -0.586647    1.111709
N       1.195783    0.048966    2.121415
C       1.689015   -0.958136    2.923288
O       2.332284   -0.668925    4.081400
C       1.449793   -2.200943    2.413065
C       1.774550   -3.570657    2.891589
N       0.761391   -1.929812    1.214386
H       0.969652    1.799299    0.037001
H      -0.563757    1.631614   -0.878919
H      -0.576881    1.737746    0.911883
H       2.335029    0.292249    4.153522
H       0.878910   -4.182752    3.063166
H       2.418178   -4.121838    2.192869
H       2.308761   -3.496051    3.841653
H       0.412722   -2.599369    0.550583
