18

O      -0.600524    0.720482    0.821134
C       0.073936    0.939026   -0.154351
C       1.341489    1.768153   -0.137554
C       1.367281    2.845033   -1.238012
C       2.590066    3.763313   -1.113503
C       2.684129    4.628848   -2.362579
O       2.694537    3.824049   -3.553965
C       1.958359    2.691915   -3.508837
N       1.312685    2.185858   -2.545791
H      -0.198322    0.535675   -1.151213
H       1.449873    2.214510    0.855374
H       2.188635    1.088619   -0.307202
H       0.458015    3.455715   -1.134924
H       2.525762    4.398139   -0.223995
H       3.497735    3.154883   -1.020748
H       1.833488    5.319490   -2.424455
H       3.604934    5.215505   -2.393508
H       1.978894    2.202026   -4.480910
