20

C       0.131650    1.558037   -0.086514
C      -0.007328    0.056331    0.102895
O       0.483330   -0.616799   -1.081852
C       1.123271   -1.784162   -0.754612
N       1.390879   -2.710786   -1.570940
C       1.453927   -1.793553    0.700978
C       1.597926   -3.120665    1.399457
C       2.264314   -0.577761    1.120655
C       0.768923   -0.561952    1.254644
H       1.182268    1.848142   -0.170711
H      -0.390992    1.878397   -0.991859
H      -0.306357    2.083825    0.767659
H      -1.071017   -0.200344    0.207636
H       1.030638   -2.484168   -2.499335
H       2.397350   -3.705353    0.935944
H       1.837024   -2.981526    2.457953
H       0.677081   -3.707680    1.327654
H       2.841538   -0.684764    2.032539
H       2.739003    0.026760    0.354906
H       0.314407   -0.562410    2.238287
