15

N       0.054961    1.518618    0.033831
C       0.025341    0.056176   -0.029639
C       0.667601   -0.504034   -1.222183
C       1.226246   -0.911154   -2.205709
C       0.696787   -0.507443    1.276540
C       0.016903   -0.041568    2.483555
C      -0.547816    0.318155    3.478910
C       0.747118   -1.977954    1.251748
N       0.780720   -3.132004    1.237436
H       0.981097    1.850658   -0.222822
H      -0.582290    1.897109   -0.659675
H      -1.024188   -0.254801   -0.000277
H       1.705057   -1.290613   -3.074955
H       1.734468   -0.146717    1.279679
H      -1.044209    0.644089    4.359661
