14

O       0.108583    1.411462   -0.234406
C       0.075000    0.028858    0.021209
C      -1.384980   -0.514118    0.050600
C      -2.106365   -0.080726   -1.241501
O      -3.063960    0.637170   -1.251372
C      -1.401383   -1.958505    0.172989
C      -1.391135   -3.165345    0.242214
C      -1.384083   -4.527688    0.328792
N      -1.375271   -5.686964    0.402511
H      -0.264099    1.880006    0.520035
H       0.618650   -0.450392   -0.798485
H       0.575011   -0.246886    0.959034
H      -1.931656   -0.059699    0.886091
H      -1.651311   -0.487868   -2.169211
