18

O       0.361862    0.208592    1.010643
C      -0.216762    0.289493   -0.281051
C      -1.530831   -0.494089   -0.404060
O      -2.106936   -0.292279   -1.690611
C      -1.357443   -1.979941   -0.071222
C      -2.678371   -2.701291    0.024682
C      -2.895482   -3.814565    0.955026
O      -3.405553   -2.512138    1.245543
H      -0.220353    0.668112    1.624651
H      -0.397904    1.328602   -0.591376
H       0.528046   -0.133302   -0.968542
H      -2.259383   -0.065479    0.297130
H      -1.505748   -0.668015   -2.344117
H      -0.734753   -2.449404   -0.847973
H      -0.815521   -2.068085    0.875434
H      -3.302319   -2.648995   -0.867672
H      -3.645446   -4.572571    0.732442
H      -2.075992   -4.147702    1.591363
