16

C      -0.106688   -1.180687   -0.058997
C      -0.039757    0.018797   -0.013460
C       0.038399    1.451896    0.001476
N       0.611552    2.094569    1.223560
C       1.344423    2.165665   -0.027320
C       2.791343    1.640741   -0.174727
C       3.101328    2.941107   -0.941367
O       2.220083    2.991113   -2.069171
C       1.715911    3.423791   -0.798862
H      -0.163581   -2.240535   -0.090809
H      -0.793719    1.961768   -0.480038
H       0.118453    2.967813    1.402935
H       3.286848    1.571560    0.796330
H       2.930317    0.717777   -0.740645
H       4.031221    3.492622   -1.008195
H       1.300679    4.423764   -0.729827
