19

C       0.096239    1.561329    0.016278
C       0.014506    0.028646    0.036226
C       0.741470   -0.539636    1.262597
C      -1.437672   -0.481141    0.007061
C      -2.193166   -0.146913   -1.292585
O      -1.545747   -0.627905   -2.457721
C      -3.583127   -0.646019   -1.218255
N      -4.656456   -1.069958   -1.156199
H       1.138787    1.891480    0.060473
H      -0.338622    1.988693   -0.892312
H      -0.425428    1.995233    0.877901
H       0.511887   -0.349614   -0.865187
H       0.275435   -0.193194    2.192772
H       0.723161   -1.634594    1.269600
H       1.788708   -0.221725    1.278640
H      -1.450025   -1.571712    0.134564
H      -2.001927   -0.066961    0.852598
H      -2.242754    0.938731   -1.424385
H      -1.518337   -1.590917   -2.410914
