21

C      -0.062755    1.513072    0.296479
C       0.003245    0.029613   -0.015050
C       1.309506   -0.551022   -0.498195
C       0.813582   -0.855346    0.897360
C      -1.293294   -0.521997   -0.583000
C      -1.677750    0.027941   -1.971772
O      -2.339187   -1.068269   -2.586374
C      -1.640961   -2.196605   -2.134770
O      -1.227597   -1.935544   -0.804748
H       0.872894    1.857856    0.746176
H      -0.233993    2.112945   -0.605467
H      -0.871971    1.735241    1.002792
H       1.272622   -1.360269   -1.218134
H       2.153312    0.120928   -0.614461
H       1.318081   -0.389841    1.737714
H       0.448640   -1.858611    1.081049
H      -2.106278   -0.328879    0.133164
H      -2.369405    0.871313   -1.939233
H      -0.777648    0.314818   -2.537602
H      -2.313723   -3.060420   -2.153359
H      -0.755793   -2.393576   -2.766345
