25

C      -0.144689    1.706230   -0.023085
C      -0.200693    0.175039   -0.098545
C       0.655098   -0.460914   -1.209475
C       0.231167    0.054425   -2.599577
C       2.175382   -0.257504   -1.002967
C       2.802724   -1.450347   -1.746392
O       1.769048   -2.419166   -1.930304
C       0.586652   -2.015232   -1.234202
C       0.506333   -2.721769    0.120982
H       0.880150    2.064548    0.120462
H      -0.539197    2.177595   -0.927818
H      -0.740536    2.068484    0.820481
H       0.113363   -0.230609    0.869368
H      -1.245498   -0.135789   -0.235928
H       0.464308    1.115397   -2.727462
H       0.742601   -0.500276   -3.391268
H      -0.847088   -0.071797   -2.749296
H       2.531019    0.701043   -1.389202
H       2.420784   -0.290542    0.063787
H       3.183080   -1.163855   -2.734932
H       3.637412   -1.892753   -1.187136
H      -0.259901   -2.346534   -1.848994
H       1.298923   -2.394735    0.802094
H      -0.458044   -2.549772    0.608719
H       0.622970   -3.797779   -0.034807
