18

C      -0.219840    1.469062    0.029494
N       0.079506    0.037830   -0.031060
C       0.758405   -0.491239    1.145895
C      -0.107654   -0.499228    2.343545
N      -0.850366   -0.489742    3.229980
C       1.308190   -1.927016    0.822021
N       2.160484   -1.949211   -0.363470
C       2.011833   -2.475413    1.977143
C       2.611720   -2.887024    2.932560
H       0.718023    2.032467    0.072804
H      -0.743979    1.759710   -0.884486
H      -0.835782    1.759107    0.894053
H      -0.779993   -0.483153   -0.180203
H       1.622327    0.150185    1.356094
H       0.429227   -2.555141    0.615040
H       1.732972   -1.343924   -1.061245
H       3.068160   -1.553139   -0.136166
H       3.125694   -3.267902    3.780521
