15

O      -0.063582    1.313730   -0.046870
N       0.039619   -0.083624   -0.045853
C      -1.105123   -0.634492    0.018488
C      -2.471011   -0.006491    0.163856
C      -3.325720   -1.119510    0.797704
O      -4.333812   -0.965192    1.434282
C      -2.619525   -2.430946    0.559871
N      -2.268418   -2.590807   -0.876926
C      -1.239169   -2.116567    0.073077
H       0.859619    1.588420   -0.063459
H      -2.462151    0.892981    0.781930
H      -2.891749    0.266907   -0.810804
H      -2.863736   -3.296190    1.164176
H      -2.117907   -3.582539   -1.052503
H      -0.379821   -2.734254    0.302730
