13

O      -0.052089    1.320906    0.008567
N       0.012733   -0.056826    0.004066
C      -1.128412   -0.631024    0.011313
C      -1.228011   -2.140745    0.007746
C      -2.717272   -2.372812    0.018600
C      -3.425220   -1.236156    0.027401
C      -2.530017   -0.052849    0.023908
O      -2.852822    1.112994    0.029819
H       0.879647    1.570239    0.002016
H      -0.752588   -2.585450   -0.875283
H      -0.739038   -2.590483    0.880773
H      -3.136962   -3.372629    0.018943
H      -4.502879   -1.137392    0.036050
