19

N       0.356375   -1.171285   -0.029148
C       0.168114   -0.030093   -0.042701
C      -0.033081    1.398729   -0.058631
C      -1.089514    1.892710   -1.037133
N      -2.390070    1.312907   -0.748323
C      -3.288871    2.075158    0.110884
C      -3.544242    1.964213   -1.352659
C       0.171660    2.133884    1.258629
C       1.200077    2.259240    0.176174
H      -1.097950    2.998051   -1.008682
H      -0.807850    1.595350   -2.053863
H      -3.869521    1.495108    0.821686
H      -2.950359    3.042749    0.479460
H      -3.372437    2.856576   -1.953464
H      -4.314448    1.300194   -1.733670
H      -0.483045    2.976225    1.450655
H       0.412627    1.539065    2.131028
H       2.146881    1.748900    0.302644
H       1.255530    3.186754   -0.383132
