17

O       0.043294    1.244549   -0.462555
C      -0.095515   -0.005575    0.196101
C      -1.478430   -0.553536    0.105455
O      -2.521408    0.083454    0.849413
C      -3.373226   -1.041207    0.500584
C      -3.623954   -0.849548   -1.016674
C      -2.136684   -1.148745   -1.184407
C      -2.077922   -1.909946    0.136684
O      -1.563449   -3.114854    0.524060
H      -0.615034    1.836467   -0.082702
H       0.599366   -0.697707   -0.289802
H       0.193250    0.066822    1.255622
H      -4.161685   -1.233786    1.224877
H      -4.250270   -1.642442   -1.434944
H      -4.001748    0.133709   -1.311282
H      -1.554968   -1.297593   -2.085222
H      -1.945485   -3.808816   -0.026036
