19

C      -0.035299    1.536416    0.008745
C      -0.010941    0.005849   -0.021775
C      -1.424900   -0.575718   -0.103415
C       0.944182   -0.566574   -1.075848
C       2.302704   -0.594027   -0.386351
O       2.134011   -0.108450    0.934656
C       0.816191   -0.600789    1.154265
O       0.898580   -1.985903    0.835002
C       1.474796   -1.852055   -0.453165
H       0.970771    1.948440    0.105693
H      -0.485499    1.932111   -0.907705
H      -0.636976    1.898001    0.850695
H      -1.921609   -0.251039   -1.023739
H      -1.407827   -1.666935   -0.086069
H      -2.036226   -0.228509    0.737634
H       0.815971   -0.425650   -2.140256
H       3.271603   -0.416233   -0.827898
H       0.500307   -0.447540    2.183081
H       1.717739   -2.777352   -0.953306
