14

C       0.062476    1.435159    0.093273
N       0.114191   -0.012291    0.055628
C       0.518695   -0.611485   -0.994770
C       0.574752   -2.070708   -1.042539
C       0.999852   -2.687458   -2.146444
O       1.395655   -1.996347   -3.264186
C       1.325094   -0.641360   -3.170319
N       0.940775    0.050076   -2.181785
H       0.683074    1.788944    0.926005
H       0.388037    1.927037   -0.829196
H      -0.964665    1.745702    0.321767
H       0.267560   -2.636556   -0.172888
H       1.082012   -3.755962   -2.292299
H       1.657339   -0.186776   -4.100043
