22

C       0.059424    1.482905    0.130431
C      -0.042278   -0.003253   -0.038357
C      -0.980503   -0.839311    0.780494
C      -1.082640   -2.233556    0.191799
C       0.392362   -2.005865   -0.177362
N       0.511502   -0.960430    0.982106
C       0.458091   -0.851348   -1.214900
C      -0.385279   -0.923441   -2.486709
C       1.919100   -0.530148   -1.550345
H       1.060544    1.845300   -0.124013
H      -0.663515    2.002109   -0.509184
H      -0.144033    1.765894    1.167889
H      -1.609442   -0.394175    1.544701
H      -1.172591   -2.976656    0.988910
H      -1.809044   -2.452640   -0.596451
H       1.103677   -2.830085   -0.225032
H      -1.445591   -1.083419   -2.276710
H      -0.299877    0.009207   -3.055980
H      -0.042191   -1.734684   -3.139615
H       2.335727   -1.297966   -2.211870
H       2.006859    0.431412   -2.068167
H       2.533337   -0.488201   -0.646540
