25

C       0.132537    1.529689   -0.086903
C      -0.026757    0.006635   -0.013734
C      -1.474667   -0.517092    0.036392
C      -2.214657   -0.002419    1.284916
C      -2.300666   -0.147198   -1.235035
C      -3.307277   -1.282124   -1.426372
C      -2.827965   -2.522483   -2.135853
C      -2.817463   -2.476685   -0.629156
C      -1.507883   -2.076661    0.049877
H       1.189155    1.802512   -0.173001
H      -0.386629    1.947000   -0.956227
H      -0.260591    2.027070    0.804956
H       0.467178   -0.441971   -0.886107
H       0.515386   -0.368953    0.864879
H      -2.320964    1.086701    1.275648
H      -3.221096   -0.430786    1.339272
H      -1.682324   -0.281714    2.201399
H      -2.802174    0.818199   -1.118813
H      -1.641925   -0.054477   -2.107842
H      -4.363045   -1.040829   -1.478271
H      -3.571259   -3.148809   -2.618508
H      -1.875510   -2.481054   -2.658488
H      -3.512428   -3.113852   -0.093830
H      -0.644386   -2.483368   -0.491411
H      -1.445892   -2.462621    1.072331
