19

C       0.636224   -0.394545    1.317889
C      -0.068923    0.000150    0.010409
C      -0.082358    1.521816   -0.069981
O      -1.023638    2.217220    0.208072
N       0.648208   -0.519622   -1.135684
C       0.016566   -0.424459   -2.472058
C       0.630532   -1.799531   -2.821531
C       0.811440   -1.982431   -1.295337
H       0.689323   -1.483252    1.408851
H       1.657496   -0.001256    1.339840
H       0.086758   -0.006058    2.179186
H      -1.120901   -0.339724    0.046311
H       0.894460    1.950696   -0.392839
H      -1.084340   -0.460533   -2.428650
H       0.316342    0.445801   -3.064764
H      -0.009333   -2.515754   -3.336737
H       1.581873   -1.713733   -3.349123
H       1.760716   -2.386528   -0.930185
H      -0.015278   -2.561246   -0.851794
