20

N      -0.041466    1.281488   -0.036109
C      -0.049025    0.019305   -0.051977
C      -1.275525   -0.866199   -0.101421
C      -0.702674   -2.201068   -0.592301
C       0.727497   -2.164321   -0.035191
C       0.960146   -2.918021    1.304221
C       1.607570   -4.070300    0.487767
C       1.773641   -3.082145   -0.701128
O       1.069895   -0.768490   -0.026938
H       0.917427    1.630835    0.014125
H      -1.688830   -0.955451    0.909934
H      -2.048964   -0.435491   -0.737308
H      -1.262240   -3.076095   -0.255176
H      -0.669246   -2.220862   -1.687173
H       1.697553   -2.386341    1.910616
H       0.085650   -3.143418    1.920381
H       2.516744   -4.515865    0.893991
H       0.898295   -4.871094    0.264241
H       1.554107   -3.438783   -1.710662
H       2.755548   -2.602487   -0.696969
