16

O       0.066853    1.439952   -0.022179
C       0.069858    0.023691    0.041475
C      -1.324191   -0.542332   -0.014539
N      -2.241224   -0.313413    1.176672
C      -3.115154   -1.378335    0.556292
C      -3.437376   -0.734811   -0.771998
C      -2.269413   -0.185814   -1.142844
C      -1.739012   -2.075341    0.163651
O      -1.217817   -3.137907    0.224792
H      -0.588693    1.751702    0.612172
H       0.644866   -0.329034   -0.820958
H       0.584501   -0.342264    0.944501
H      -1.791694   -0.710022    2.009118
H      -3.890393   -1.839086    1.163347
H      -4.374645   -0.805111   -1.303173
H      -1.990506    0.324132   -2.052660
