19

C       0.113872    1.559431   -0.235534
C       0.048228    0.038950   -0.075038
O       0.802741   -0.547569   -1.142451
C       1.279000   -1.831090   -0.723175
C       1.446861   -1.736417    0.781512
C       2.154494   -0.508221    1.292091
C       0.650795   -0.524578    1.202318
C      -1.419718   -0.385682   -0.214995
O      -2.190950   -0.519370    0.698585
H       1.152900    1.891820   -0.173745
H      -0.288104    1.863965   -1.206664
H      -0.466022    2.047703    0.552382
H       0.557130   -2.623528   -0.975887
H       2.205492   -2.022391   -1.274583
H       1.447846   -2.648884    1.365210
H       2.589821   -0.559051    2.283706
H       2.713348    0.094853    0.583122
H       0.035523   -0.516711    2.092091
H      -1.721892   -0.545857   -1.275842
