19

C      -0.472088    1.134077    0.630039
C       0.249824   -0.166627    0.257340
C       0.729930   -0.178043   -1.178969
C       0.572052   -1.375796   -2.033393
O      -0.287925   -0.256145   -2.184445
C       1.880209    0.755289   -1.484795
O       2.554463    1.282959   -0.633622
O       2.077993    0.908434   -2.803074
C       3.169861    1.765077   -3.161732
H       0.203771    1.990283    0.558716
H      -1.323676    1.306484   -0.034960
H      -0.846856    1.085167    1.656394
H       1.113348   -0.318610    0.912206
H      -0.423411   -1.019080    0.394780
H       1.263030   -1.546268   -2.855841
H       0.121087   -2.264952   -1.594467
H       3.022114    2.766645   -2.750751
H       4.114242    1.365994   -2.782594
H       3.175973    1.794986   -4.251018
