21

C       0.098277    1.541219    0.183662
C      -0.073068    0.033298   -0.048962
C       0.675667   -0.478081   -1.260162
C       0.867029   -2.009930   -1.567630
C       2.080686   -1.545250   -2.439443
C       1.367710   -0.737926   -3.545478
C       0.326458    0.052908   -2.674585
C       2.218735   -0.472773   -1.345586
O       3.108313    0.006394   -0.703526
H       1.156900    1.796115    0.285290
H      -0.314738    2.127596   -0.643398
H      -0.416682    1.852398    1.097359
H       0.283168   -0.508051    0.836244
H      -1.139081   -0.211089   -0.150394
H       1.157204   -2.588992   -0.688599
H       0.048909   -2.499556   -2.102948
H       2.897859   -2.207139   -2.717644
H       2.051005   -0.078852   -4.087253
H       0.885403   -1.395231   -4.273974
H      -0.707665   -0.185962   -2.941192
H       0.451815    1.135267   -2.756954
