19

O       0.033707    1.475948    0.323494
C       0.125017    0.128831   -0.099423
C      -1.262959   -0.503224   -0.112138
C      -2.145814   -0.120831   -1.309446
C      -2.101894   -1.427226   -2.175432
C      -1.934901   -2.526900   -1.123043
C      -1.416073   -1.987318   -0.026663
C      -1.555828   -1.856312    1.468997
O      -1.786049   -0.421338    1.279900
H      -0.461872    1.449313    1.152401
H       0.555915    0.134298   -1.106328
H       0.797768   -0.453516    0.549877
H      -3.168860    0.046924   -0.960115
H      -1.808953    0.774237   -1.838418
H      -3.019153   -1.566865   -2.756280
H      -1.277639   -1.403552   -2.900675
H      -2.310969   -3.534953   -1.251634
H      -2.409628   -2.359257    1.933567
H      -0.653956   -2.036046    2.066903
