16

O      -0.529299    0.717203    0.692149
C       0.203991    1.017729   -0.217447
C       1.381076    1.909543   -0.066606
C       1.820379    2.391995    1.308575
O       2.456905    3.657477    1.084235
C       2.794566    3.684242   -0.286017
C       3.643930    2.452301   -0.697841
N       2.411846    1.712328   -1.153739
C       1.644516    2.987619   -1.056377
H       0.054615    0.642354   -1.251547
H       0.955052    2.526977    1.962270
H       2.512296    1.690090    1.791183
H       3.128528    4.684693   -0.556345
H       4.270417    2.631873   -1.574244
H       4.230639    1.962217    0.084363
H       0.965100    3.350606   -1.818237
