19

C      -0.121909    1.555339    0.076746
C       1.393718    1.308469    0.027851
C       1.284379   -0.019309    0.884542
C       2.101953   -0.828189   -0.137900
C       1.234672    0.124818   -1.001426
C       0.639726   -0.127919   -2.345425
C      -0.554912   -0.724537   -2.189784
C      -0.978466   -0.914982   -0.724046
C       0.008830    0.022443   -0.040267
H      -0.529783    1.946239    1.014818
H      -0.559881    2.074865   -0.781471
H       2.215622    2.025504    0.086087
H       1.306268   -0.067124    1.975506
H       3.183437   -0.659105   -0.149288
H       1.880690   -1.897951   -0.214773
H       1.117618    0.049254   -3.302727
H      -1.172538   -1.078969   -3.010354
H      -2.025027   -0.641466   -0.549058
H      -0.873402   -1.966875   -0.426342
