15

C       0.070864    1.423476    0.037115
N       0.037673   -0.022350   -0.063414
C      -1.081110   -0.613452   -0.085220
N      -1.242147   -1.986890   -0.200945
C      -2.609022   -2.388746    0.070606
C      -3.364275   -1.054812    0.072319
O      -4.553931   -0.876501    0.136285
N      -2.383572   -0.087946   -0.008880
H       1.045650    1.733255    0.424263
H      -0.049456    1.901951   -0.945815
H      -0.692260    1.846271    0.711348
H      -0.460960   -2.551947    0.089363
H      -3.022706   -3.051069   -0.697113
H      -2.744514   -2.875061    1.046642
H      -2.595145    0.895382   -0.037594
