19

O       0.029152    1.333844   -0.021134
C       0.041466   -0.058418    0.066338
C      -0.513275   -0.680130    1.330895
C      -1.304175   -0.748223    0.024567
O      -2.391041    0.134487   -0.129919
C      -1.394430   -2.031791   -0.712622
C      -0.308643   -2.714006   -1.081679
C       1.088866   -2.222798   -0.792104
C       1.171937   -0.685894   -0.719015
H      -0.898647    1.583660   -0.140426
H      -0.108414   -1.606993    1.722550
H      -0.861555    0.027199    2.077387
H      -2.998151    0.007161    0.606006
H      -2.395005   -2.395304   -0.930471
H      -0.415679   -3.666915   -1.591942
H       1.447460   -2.662891    0.149529
H       1.781073   -2.583265   -1.560615
H       1.118652   -0.269363   -1.731719
H       2.135485   -0.377625   -0.298984
