12

F       0.691825    0.402482   -0.068633
C       0.082618    1.590809   -0.039693
F       0.997982    2.539011   -0.276230
F      -0.806950    1.620654   -1.037744
C      -0.608091    1.869817    1.279687
O      -1.330145    0.815338    1.869591
C      -0.184240    1.307779    2.580548
C       0.964007    0.352704    2.762387
O       1.806707    0.536298    3.601183
H      -1.096177    2.844690    1.278975
H      -0.399138    1.907989    3.463884
H       0.952298   -0.530596    2.098386
