18

O      -0.038107    1.356468    0.371870
N       0.057642   -0.046551    0.424730
C      -1.009216   -0.589268    0.013042
C      -2.359755   -0.118043   -0.479209
C      -2.806357   -1.614933   -0.537092
C      -2.932799   -2.215200   -1.937514
O      -1.599558   -2.343030   -2.417989
C      -0.817396   -2.796053   -1.320613
C      -1.360860   -2.058716   -0.083013
H       0.819858    1.631214    0.712495
H      -2.902235    0.513977    0.229660
H      -2.332646    0.393434   -1.446872
H      -3.632825   -1.875203    0.123948
H      -3.424952   -3.201044   -1.888791
H      -3.482379   -1.586760   -2.644147
H      -0.931988   -3.883919   -1.184011
H       0.230201   -2.574658   -1.536633
H      -1.252277   -2.637079    0.836293
