15

O      -0.226622    0.376740   -0.842377
C       0.078053    1.022066    0.135912
C       1.261236    1.876974    0.212912
C       2.663496    1.624316   -0.356191
C       1.859974    2.783075   -0.870790
C       2.308465    3.853122    0.171600
O       3.720394    3.664269    0.397867
C       3.356737    2.341370    0.842953
C       1.924169    2.804966    1.267580
H      -0.545900    0.998032    1.057693
H       2.974680    0.783621   -0.959019
H       1.519340    2.882505   -1.891127
H       1.989796    4.890177    0.094079
H       4.106230    1.837996    1.449513
H       1.606092    3.034396    2.280838
