20

C       0.648873    0.218783   -1.030842
N      -0.091944    0.068861    0.223168
C       0.024314    1.246280    1.073874
C      -1.404736   -0.404670    0.077564
C      -2.640806    0.217520    0.163530
C      -3.570297   -0.817640   -0.051069
N      -2.977468   -1.988946   -0.258691
N      -1.653883   -1.725245   -0.163098
C      -0.693106   -2.797582   -0.283330
H       1.705121    0.398048   -0.806679
H       0.577262   -0.693843   -1.625875
H       0.275029    1.057278   -1.642168
H      -0.385103    2.158974    0.607631
H      -0.501486    1.072742    2.015047
H       1.081680    1.427094    1.291553
H      -2.832155    1.261658    0.347522
H      -4.649141   -0.757681   -0.064637
H      -0.413875   -2.980011   -1.327731
H       0.200359   -2.532287    0.285405
H      -1.140952   -3.705545    0.122141
