19

C      -0.560260    0.340093   -1.110595
O       0.034252   -0.317873   -0.003144
C      -0.873868   -0.595146    1.039188
C      -1.684074   -1.891019    0.865293
O      -2.684678   -2.093330    1.523103
N      -1.125726   -2.750932   -0.044888
C      -1.533896   -4.029262   -0.452495
C      -2.786309   -4.595312    0.163696
N      -0.785953   -4.587966   -1.320858
H       0.232068    0.511944   -1.841905
H      -1.349516   -0.267491   -1.575152
H      -0.990175    1.306126   -0.811073
H      -0.285597   -0.702569    1.957754
H      -1.591141    0.220359    1.196714
H      -0.273934   -2.428319   -0.488682
H      -3.645856   -3.948951   -0.029163
H      -2.973683   -5.589028   -0.248723
H      -2.695527   -4.656961    1.250479
H      -1.149771   -5.508531   -1.560798
