20

C      -0.548618    1.625686   -0.794609
C      -0.618394    0.117409   -0.571227
N       0.463842   -0.545570   -1.297714
C       1.696898   -0.849564   -0.583185
C       0.786920   -1.940693   -1.036146
C       0.018419   -2.782288   -0.024622
O      -1.288020   -3.108218   -0.498123
C       0.788326   -3.982069    0.318983
C       1.418284   -4.980315    0.547110
H       0.390496    2.035590   -0.408204
H      -0.603918    1.858760   -1.861524
H      -1.374073    2.129442   -0.282177
H      -0.593484   -0.089620    0.511862
H      -1.563422   -0.285856   -0.949114
H       2.627925   -0.649490   -1.106498
H       1.727059   -0.649358    0.488738
H       1.054699   -2.503809   -1.930826
H      -0.156125   -2.199713    0.885196
H      -1.185194   -3.718298   -1.237605
H       1.971244   -5.859118    0.770962
