18

C       0.054654    1.565462    0.131962
C      -0.099580    0.046401   -0.055647
C       0.655126   -0.487416   -1.240559
C       0.105535   -0.899907   -2.449497
N       1.107254   -1.291886   -3.276427
C       2.316909   -1.149524   -2.638134
C       3.543415   -1.509567   -3.309575
O       3.589029   -1.945499   -4.446794
C       2.055090   -0.648525   -1.368335
H       1.105376    1.839880    0.268985
H      -0.316493    2.107117   -0.743687
H      -0.501991    1.910747    1.009041
H       0.238138   -0.462933    0.855362
H      -1.162274   -0.199211   -0.164386
H      -0.927503   -0.938929   -2.760608
H       1.033864   -1.649374   -4.215286
H       4.463445   -1.359120   -2.707013
H       2.801641   -0.430008   -0.618228
