18

C      -0.082159    1.466456   -0.160307
C       0.273815   -0.009304   -0.066084
O       1.098081   -0.426152    0.727287
N      -0.399033   -0.826089   -0.933489
C      -0.147155   -2.254759   -1.016495
C       0.138362   -2.698066   -2.431193
C      -0.191508   -4.074639   -2.865203
N      -0.970458   -2.932118   -3.379322
H       0.822385    2.029491   -0.405301
H      -0.852487    1.690006   -0.902952
H      -0.422559    1.808206    0.820516
H      -1.044594   -0.417603   -1.589169
H       0.706380   -2.446961   -0.360525
H      -1.002298   -2.823826   -0.620829
H       0.991859   -2.203828   -2.890822
H       0.429399   -4.576296   -3.601217
H      -0.658701   -4.738012   -2.141336
H      -1.859569   -2.890015   -2.883754
