18

C       0.078160    1.380180   -0.012087
O       0.134715   -0.025404   -0.027004
C       0.569859   -0.569621    1.202259
C       0.633861   -2.076436    1.057626
C       1.725457   -2.687462    0.102550
C       2.294294   -3.437499    1.313701
O       2.657109   -2.452943    2.290466
C       1.284388   -2.858048    2.214341
H       1.063413    1.827752    0.194452
H      -0.257798    1.706244   -0.999646
H      -0.630414    1.753534    0.744864
H       1.563801   -0.179912    1.471721
H      -0.125599   -0.291092    2.014424
H      -0.356247   -2.472230    0.814009
H       1.294815   -3.341927   -0.657985
H       2.410286   -1.979523   -0.369436
H       2.814559   -4.387233    1.357046
H       0.832513   -3.242177    3.121999
