17

C      -0.158596    1.624820    0.010778
C       0.032309    0.117158   -0.013703
C       0.828208   -0.609540   -1.126768
C       2.097252    0.130676   -1.507572
O       2.834100    0.547653   -0.337679
C       2.374985    0.196888    0.894256
O       2.955292    0.542127    1.883479
C       1.084647   -0.610845    0.862428
O       1.220128   -1.630283   -0.164878
H       0.783858    2.168362   -0.098798
H      -0.827159    1.938646   -0.797725
H      -0.615973    1.937929    0.954522
H      -0.921895   -0.400388    0.115875
H       0.308556   -1.012506   -2.000494
H       2.755010   -0.523618   -2.088490
H       1.882532    1.029763   -2.095783
H       0.837601   -1.002440    1.848939
