19

O      -0.055340    1.363739   -0.000925
C       0.033377   -0.029879   -0.024641
C       1.044773   -0.682796   -0.974736
C       0.227773   -1.773422   -1.715396
C      -0.883408   -2.165552   -0.700497
C      -0.250414   -2.958240    0.435335
C       0.043989   -2.171471    1.473398
C      -0.430675   -0.777909    1.241579
C      -1.241737   -0.810101   -0.043454
H       0.697345    1.701678    0.496229
H       1.433149    0.075750   -1.659362
H       1.894931   -1.119790   -0.441388
H      -0.236832   -1.348849   -2.612562
H       0.840400   -2.625200   -2.029031
H      -1.722237   -2.677177   -1.180411
H       0.035270   -3.998777    0.327812
H       0.577904   -2.474816    2.366827
H      -0.740178   -0.143060    2.065431
H      -2.213186   -0.341712   -0.138628
