16

C      -0.085461    1.531439    0.064978
C      -0.096926    0.008767   -0.081939
C       0.818756   -0.459626   -1.231003
O       2.142301   -0.047320   -1.028048
C       0.782126   -1.978950   -1.383594
O       1.796760   -2.633568   -1.236469
C      -0.486607   -2.587038   -1.711999
C      -1.548447   -3.074276   -2.001714
H       0.933169    1.890900    0.228911
H      -0.475334    2.017627   -0.836227
H      -0.704243    1.845608    0.910632
H       0.252730   -0.461368    0.845210
H      -1.114828   -0.352037   -0.267214
H       0.432741   -0.034257   -2.174237
H       2.665716   -0.863706   -0.979501
H      -2.480516   -3.518634   -2.255779
