13

C      -0.061657    1.489524    0.001377
C      -0.003097   -0.011495   -0.013858
C       0.126320   -0.757202   -1.193424
N       0.175432   -2.078129   -1.175094
C       0.091885   -2.620195    0.046584
O       0.135049   -3.953449    0.135624
N      -0.032208   -1.970844    1.203527
N      -0.079178   -0.646419    1.158572
H       0.846173    1.928887   -0.426094
H      -0.910367    1.862009   -0.582416
H      -0.166291    1.835942    1.030654
H       0.190712   -0.271010   -2.165098
H       0.224990   -4.288484   -0.766884
