18

C      -0.012253    1.555779    0.016327
C       1.535045    1.536024    0.007445
O       2.121362    1.397907    1.320634
C       2.086866   -0.050460    1.254161
C       1.020825   -0.715172    2.130309
N      -0.077468    0.176323    2.550696
C      -0.266524   -0.696719    1.377924
C      -0.031916   -0.013982    0.026963
C       1.520067    0.003142   -0.187572
H      -0.472429    2.051943    0.870825
H      -0.414467    1.958244   -0.918099
H       2.073520    2.265145   -0.601570
H       3.083500   -0.475582    1.411347
H       1.304909   -1.539519    2.776539
H      -0.543283   -0.233312    3.357582
H      -0.978263   -1.513697    1.444665
H      -0.631224   -0.467553   -0.763450
H       1.987425   -0.551646   -0.999321
