19

O       0.039729    1.348639    0.429892
C      -0.095442   -0.033538    0.665145
C      -1.397933   -0.588008    0.097972
C      -2.583075    0.273529    0.052381
O      -1.785970    0.045142   -1.130564
C      -1.539818   -2.088234    0.134704
O      -1.517830   -2.608303    1.441395
C      -2.454217   -2.782224   -0.824439
C      -0.952194   -2.920064   -0.977653
H      -0.214451    1.480648   -0.493466
H       0.743305   -0.603038    0.228529
H      -0.072542   -0.185032    1.749402
H      -3.570272   -0.181543    0.030404
H      -2.520932    1.283146    0.448879
H      -0.598825   -2.717983    1.707774
H      -2.998436   -3.632290   -0.430795
H      -2.977666   -2.177979   -1.555402
H      -0.479785   -2.406437   -1.807656
H      -0.502985   -3.867808   -0.701253
