11

O      -0.065403    0.106844   -0.058038
C       0.038282    1.281787    0.020064
O      -0.986131    2.214059    0.217486
C      -0.041459    3.303562    0.044573
C       0.968045    3.258088    1.142468
C       1.121149    2.330791   -0.063092
C      -0.410519    4.417292   -0.761268
N      -0.693821    5.337024   -1.402104
H       1.686156    4.071107    1.171757
H       0.657605    2.863598    2.104023
H       1.983969    2.333723   -0.712195
