15

O       0.050323    1.465314    0.028504
C      -0.031443    0.066818    0.040709
C      -1.474376   -0.469180   -0.177706
N      -0.960192   -1.162262   -1.370532
C      -1.597574   -1.926151   -2.412356
C      -2.675329   -1.183140   -3.083953
N      -3.534946   -0.594659   -3.582588
C       0.311367   -0.640717   -1.300714
O       1.259674   -0.712580   -2.035598
H       0.945956    1.705454   -0.235356
H       0.476918   -0.381188    0.905240
H      -1.867890   -1.137089    0.593655
H      -2.190155    0.325778   -0.403567
H      -0.820383   -2.180789   -3.141086
H      -2.013089   -2.865108   -2.024754
