18

C       0.091346    1.423560    0.088810
N      -0.226806    0.023865   -0.134769
C       0.498672   -0.660585   -1.120464
C       0.649369   -2.031579   -1.222199
N       1.386406   -2.300453   -2.359299
C       1.718776   -3.622094   -2.837029
C       1.698968   -1.123645   -2.975396
C       1.172483   -0.084408   -2.237663
H       1.156982    1.614422    0.299367
H      -0.185525    2.015037   -0.790511
H      -0.500865    1.792913    0.930289
H      -0.273344   -0.496435    0.729850
H       0.291169   -2.829739   -0.591896
H       0.827383   -4.167179   -3.170022
H       2.406617   -3.535837   -3.680494
H       2.208612   -4.207928   -2.051667
H       2.275568   -1.117008   -3.887024
H       1.267547    0.964077   -2.469462
