20

C       0.252919    1.462880   -0.335362
C       0.009858    0.030766    0.066303
O       1.154396   -0.810575    0.256030
C       0.312985   -0.549293    1.386273
C       0.934509    0.192144    2.545883
C       1.923218   -0.697009    3.312183
C       2.571676    0.050371    4.493460
C       3.506149   -0.784630    5.245115
N       4.240087   -1.458140    5.830777
H       1.059283    1.920799    0.240517
H       0.527226    1.511925   -1.394207
H      -0.657615    2.056356   -0.198740
H      -0.791107   -0.456053   -0.495114
H      -0.284765   -1.414094    1.687466
H       1.450851    1.088579    2.188651
H       0.134634    0.527974    3.220045
H       1.412339   -1.589966    3.689376
H       2.702637   -1.045118    2.627401
H       3.110178    0.935054    4.133322
H       1.800688    0.413460    5.183696
