17

C       0.042977    1.536155   -0.071295
C       0.077434    0.082937   -0.009272
C       0.094214   -1.120004    0.038497
C       0.101219   -2.564440    0.090593
C       0.070028   -3.201435    1.518240
N      -1.376660   -3.460628    1.357316
C      -1.295111   -3.279136   -0.103280
C      -2.394027   -2.527118   -0.706843
N      -3.262557   -1.949992   -1.204443
H       0.811840    1.924709   -0.747901
H      -0.929282    1.887000   -0.433401
H       0.211120    1.980264    0.915849
H       0.871959   -2.973702   -0.566279
H       0.697460   -4.100854    1.576505
H       0.314251   -2.533568    2.347499
H      -1.713356   -4.366412    1.662629
H      -1.164426   -4.208594   -0.675598
