17

C       0.020070    1.585513    0.108530
C       0.301549    0.081554    0.193778
C       0.685773   -0.536925   -1.139248
C       0.519827   -2.074998   -1.284729
C      -0.557314   -1.702664   -2.300778
O      -1.331640   -2.256369   -3.008042
O      -0.356926   -0.348641   -2.170340
C       2.017053   -0.054744   -1.694826
O       2.907564    0.388191   -1.019820
H       0.914633    2.138645   -0.189024
H      -0.772236    1.791181   -0.616514
H      -0.301611    1.966563    1.081395
H       1.125086   -0.111999    0.889592
H      -0.580480   -0.444624    0.575764
H       1.361364   -2.621856   -1.716291
H       0.165450   -2.592853   -0.392545
H       2.108792   -0.175773   -2.797159
