15

N       0.058529    0.887707   -0.827100
C      -0.011587    0.011722    0.208936
O       0.852624   -0.139312    1.053750
C      -1.271871   -0.782473    0.219210
C      -1.864126   -1.437262    1.428296
C      -1.487858   -2.289555    0.244362
C      -2.452810   -2.026624   -0.907020
O      -2.260158   -0.584875   -0.802659
H       0.871790    1.471890   -0.921074
H      -0.688733    0.935805   -1.499089
H      -1.182411   -1.505076    2.268491
H      -2.906479   -1.242821    1.664549
H      -0.747080   -3.075149    0.290635
H      -2.094171   -2.390776   -1.875429
H      -3.502140   -2.309192   -0.766311
