16

O      -0.094123    1.403896    0.059891
C      -0.042498    0.030083    0.010435
C       0.665500   -0.735575   -1.152525
N       0.835139   -2.141577   -0.726491
C      -0.473577   -1.671974   -1.238434
C      -1.208850   -0.943016   -0.078273
C      -0.358690   -0.873400    1.176450
C       0.532099   -1.946078    1.752948
O       1.516279   -1.683727    2.401340
H       0.649433    1.713912    0.590599
H       1.276566   -0.284574   -1.923078
H       1.319394   -2.657454   -1.459836
H      -0.942828   -2.131652   -2.097711
H      -2.270582   -0.736230   -0.077261
H      -0.858333   -0.300855    1.957106
H       0.165405   -2.984902    1.634374
