10

N       0.072355    1.391540    0.158357
C      -0.006505    0.024669    0.021539
N      -1.110959   -0.650665   -0.030539
O      -0.693904   -2.018824   -0.045512
C       0.666104   -2.103975   -0.024492
O       1.310950   -3.111967   -0.023577
N       1.101982   -0.779617   -0.006855
H       0.734172    1.838105   -0.463837
H      -0.840988    1.824484    0.098816
H       2.057370   -0.514834    0.159708
