18

C      -0.036089    1.521879    0.068183
C      -0.091478    0.000834   -0.090565
C       0.830565   -0.501537   -1.199928
N       0.749807   -1.950027   -1.322747
C       1.358932   -2.600643   -2.347391
N       1.839681   -2.002513   -3.419243
O       2.302338   -3.094133   -4.197181
C       2.054067   -4.185846   -3.485559
N       1.482719   -3.981082   -2.343886
H       0.976968    1.860331    0.310715
H      -0.342745    2.026997   -0.853876
H      -0.700469    1.857951    0.869234
H       0.191268   -0.477733    0.857389
H      -1.116553   -0.321131   -0.307895
H       0.538714   -0.068984   -2.162778
H       1.865352   -0.173921   -1.012252
H       0.696515   -2.485991   -0.470034
H       2.346529   -5.132574   -3.917167
