16

C       0.012025    1.527254   -0.025933
C       0.008177    0.023405   -0.001478
C      -0.015179   -0.725169   -1.173938
N      -0.019703   -2.060349   -1.202433
C       0.000007   -2.652052   -0.010444
N       0.023377   -2.055547    1.181686
C       0.027538   -0.717332    1.193522
C       0.053751   -0.046452    2.539467
H       0.901467    1.937844    0.465766
H      -0.004209    1.900163   -1.053587
H      -0.858136    1.942748    0.495299
H      -0.031065   -0.220867   -2.139533
H      -0.003055   -3.739700   -0.005573
H       0.936412    0.594976    2.645527
H      -0.822509    0.597539    2.678269
H       0.067171   -0.802640    3.324725
