16

C      -0.012732    1.425968    0.106053
N       0.033212   -0.025218    0.002139
C      -0.103141   -0.811028    1.195370
C      -1.524248   -0.817664    1.779751
O      -2.461383   -0.279366    1.239058
C      -1.647334   -1.529786    3.038811
C      -1.711496   -2.134621    4.077613
C       0.140735   -0.621279   -1.224120
O       0.232772   -0.041345   -2.282389
H       0.771434    1.784794    0.783340
H       0.155605    1.829877   -0.891998
H      -0.987147    1.758784    0.474393
H       0.171432   -1.853081    0.988593
H       0.585363   -0.465590    1.980082
H      -1.791353   -2.662928    4.997157
H       0.148260   -1.726587   -1.140369
