15

N      -0.038877   -1.152765   -0.124037
C      -0.025464    0.001302   -0.065502
C      -0.013439    1.460470    0.002007
C      -0.661133    2.030308    1.300199
C       0.007740    3.408612    1.507186
C       1.380968    3.244439    0.887642
O       2.036469    2.022854    1.264624
C       1.385684    2.078119   -0.002078
H      -0.542915    1.839046   -0.882252
H      -1.747572    2.086889    1.218682
H      -0.419260    1.369304    2.133027
H      -0.529886    4.202503    0.974670
H       0.049982    3.690149    2.563184
H       2.037011    4.096884    0.734225
H       2.022889    1.976991   -0.875880
