20

C       0.013408    1.558917   -0.229451
C       1.581572    1.496761    0.070101
C       1.289758    0.198620    0.899748
C       1.044704    0.300640    2.397857
C      -0.077561   -0.761599    2.542945
C      -0.178692   -1.194803    1.090729
N       1.294233   -1.368671    0.577781
C       0.757624   -0.961413   -0.789388
C       0.016424    0.037497    0.113461
H      -0.511373    2.177032    0.503797
H      -0.297552    1.856188   -1.234566
H       2.173557    1.363577   -0.835462
H       2.006515    2.325341    0.641146
H       1.942481    0.053624    2.972672
H       0.724040    1.303433    2.697495
H       0.208035   -1.601524    3.181875
H      -1.018674   -0.351621    2.920559
H      -0.834007   -2.029071    0.827546
H       1.527853   -0.595362   -1.472485
H       0.167308   -1.744989   -1.274669
