21

O       0.416754    0.304273   -1.468099
C       0.030133    0.243582   -0.099322
C      -1.299809   -0.482582    0.073189
C      -1.423385   -1.982749   -0.231909
C      -1.031270   -2.861301    0.950586
C      -0.122727   -2.321603    2.053621
C      -0.867556   -1.055174    2.563805
C      -1.925485   -0.767968    1.484692
C      -2.359431   -2.165893    0.954705
H       0.523823   -0.602309   -1.774122
H       0.823196   -0.213580    0.508680
H      -0.066397    1.286145    0.225901
H      -2.041642    0.046716   -0.535485
H      -1.523422   -2.415877   -1.221836
H      -1.009716   -3.922984    0.727218
H      -0.009096   -3.064436    2.849914
H       0.885229   -2.095518    1.691036
H      -1.367578   -1.266954    3.515449
H      -0.196631   -0.207596    2.735430
H      -2.701819   -0.069542    1.797882
H      -3.333657   -2.632049    1.013399
