16

O       0.131752    1.397353    0.242447
C      -0.012036    0.001331    0.052334
C      -1.445131   -0.432639   -0.123548
C      -2.222628   -0.105557   -1.345094
C      -1.358453    0.271433   -2.537269
C      -0.476488   -0.959679   -2.143134
N      -1.567454   -1.463539   -1.202202
C       0.641763   -0.438181   -1.275129
O       1.802875   -0.277035   -1.550947
H       1.071067    1.594738    0.134416
H       0.445153   -0.563445    0.880804
H      -2.025347   -0.672469    0.760680
H      -3.300995    0.007289   -1.292872
H      -1.872301    0.085308   -3.481817
H      -0.898217    1.262287   -2.557460
H      -0.186874   -1.656983   -2.925408
