14

C       0.123929    1.511582    0.058793
C      -0.009276    0.020389    0.021770
N      -0.136365   -0.527449   -1.129965
O      -0.263999   -1.928951   -1.200834
C      -0.259736   -2.741572   -0.102210
O      -0.371895   -3.927282   -0.223446
N      -0.120140   -2.098874    1.110596
C       0.012466   -0.729473    1.294981
N       0.142503   -0.112802    2.401466
H       1.064630    1.792361    0.540680
H       0.089219    1.910481   -0.955168
H      -0.679726    1.945200    0.660526
H      -0.119122   -2.715426    1.911571
H       0.141982   -0.746862    3.202406
