25

C      -0.253192    1.596835    0.117078
C      -0.102405    0.068937    0.076500
C       0.728453   -0.352965   -1.146320
C       0.662105   -1.842540   -1.507319
C       1.392064   -2.840185   -0.586318
C       2.923676   -2.643004   -0.598229
C       0.883213   -2.906477    0.837539
C       0.518254   -1.918758    1.656626
C       0.479750   -0.428587    1.412941
H       0.723317    2.085406    0.221110
H      -0.715415    1.974197   -0.800974
H      -0.874049    1.915982    0.960907
H      -1.105138   -0.368815   -0.033113
H       0.368450    0.213955   -2.014360
H       1.771059   -0.037732   -1.000819
H      -0.393024   -2.138543   -1.569935
H       1.074592   -1.970528   -2.516662
H       1.207767   -3.829588   -1.026193
H       3.209266   -1.682290   -0.159772
H       3.421159   -3.426496   -0.018241
H       3.313972   -2.680044   -1.621578
H       0.872134   -3.911593    1.257786
H       0.235680   -2.211040    2.666865
H       1.496579   -0.017414    1.520427
H      -0.097888    0.029761    2.224359
