14

N      -0.180575    1.417180   -0.139196
C      -0.009353    0.026445   -0.003553
C      -0.244586   -0.902505   -1.236314
N       0.648510   -2.040799   -1.428609
C       0.659214   -2.625908   -0.299335
N      -0.147593   -2.018140    0.742657
C      -1.065383   -1.124260   -0.033876
C       0.631004   -0.751395    1.083119
O       1.322560   -0.531602    2.024913
H      -0.186128    1.879883    0.763747
H       0.545293    1.837482   -0.708967
H      -0.612915   -0.387536   -2.114381
H       1.268742   -3.488162   -0.056467
H      -2.127586   -1.079265    0.160507
