15

C      -0.051248    1.503687   -0.058078
C       0.012982    0.014305    0.088646
O      -1.214446   -0.645668   -0.187425
C      -1.245185   -1.727643    0.636019
N      -0.277041   -1.905789    1.442804
C       0.647710   -0.839541    1.166109
C       1.256911   -0.801587   -0.249119
C       1.201947   -1.931252   -1.127737
N       1.147898   -2.835581   -1.846955
H       0.905958    1.952553    0.219424
H      -0.273877    1.783821   -1.092085
H      -0.829533    1.917979    0.589280
H      -2.119228   -2.356855    0.531384
H       1.253204   -0.474515    1.986495
H       2.163931   -0.210975   -0.326351
