17

N       0.076591   -1.170871    0.137890
C       0.059367   -0.018615    0.058862
C       0.010795    1.448749    0.000199
C      -0.808796    2.011435    1.192655
C      -0.570726    3.499791    1.377205
O       0.673629    3.862534    1.992715
C       0.478039    4.204589    0.619964
C       1.338342    3.432190   -0.362370
N       1.366680    1.991270   -0.115140
H      -0.508107    1.715291   -0.930633
H      -1.874342    1.818670    1.030766
H      -0.526334    1.494258    2.115867
H      -1.421295    4.072485    1.745149
H       0.362975    5.271486    0.423696
H       0.966759    3.611522   -1.380514
H       2.367551    3.804640   -0.327636
H       1.870299    1.812865    0.749337
