14

O      -0.877344    1.135929    0.467203
C       0.156664    0.847705   -0.085294
C       1.373180    1.666883    0.003461
C       1.971404    2.613554    0.994953
C       3.312685    1.908210    0.784239
N       2.776091    1.364713   -0.536722
C       2.641248    2.644858   -1.298520
O       3.152128    2.983503   -2.314439
C       1.573082    3.152800   -0.381726
H       0.269728   -0.064161   -0.707351
H       1.509524    3.003580    1.893474
H       4.221231    2.509626    0.681556
H       3.473763    1.086684    1.484117
H       0.812496    3.909423   -0.517343
