23

C      -0.281680    1.392226    0.184772
O      -0.183145   -0.008734    0.128390
C       0.720733   -0.534599    1.083161
C       0.806194   -2.023261    0.910381
C      -0.209835   -2.906786    1.595635
C       1.231230   -2.935434    2.045501
C       2.130109   -4.023917    1.475254
C       1.834624   -4.021718   -0.043407
C       1.425039   -2.567693   -0.373527
H       0.687382    1.881153   -0.007560
H      -0.991896    1.703805   -0.585337
H      -0.647331    1.739522    1.165066
H       1.716667   -0.075096    0.946106
H       0.386175   -0.282762    2.104695
H      -0.921551   -2.413354    2.249092
H      -0.621877   -3.758555    1.064277
H       1.466429   -2.529669    3.024404
H       3.178255   -3.760208    1.663113
H       1.960285   -5.006233    1.929649
H       2.688610   -4.360330   -0.635894
H       1.010236   -4.706062   -0.267538
H       0.750228   -2.504355   -1.232311
H       2.310959   -1.966391   -0.616983
