23

C      -0.190045    1.548433    0.019199
C       0.017113    0.035726    0.003356
C       0.873412   -0.500954   -1.194119
C       2.014467   -1.303102   -0.508532
C       2.777037   -2.257598   -1.410285
C       2.893642   -0.272234    0.226286
O       2.065753    0.220833    1.293255
C       0.827910   -0.504290    1.204543
C       1.268577   -1.887923    0.716735
H       0.769713    2.066698    0.096752
H      -0.694491    1.886488   -0.891973
H      -0.803490    1.855515    0.873610
H      -0.962994   -0.457033    0.002700
H       0.285819   -1.151876   -1.849772
H       1.270018    0.311119   -1.813152
H       3.281330   -1.720477   -2.221928
H       3.541440   -2.809158   -0.851807
H       2.103141   -2.988757   -1.869433
H       3.799279   -0.731147    0.648431
H       3.200261    0.557997   -0.423133
H       0.328457   -0.435103    2.172627
H       0.436596   -2.543422    0.443566
H       1.925183   -2.402621    1.424040
