22

C      -0.087851    1.481769   -0.212291
C      -0.020998   -0.026336   -0.043127
O      -1.339674   -0.533544    0.028466
C      -1.409917   -1.940831    0.165639
C      -2.890516   -2.339307    0.073352
C      -3.022836   -3.859186   -0.002434
C      -3.680590   -1.769485    1.262631
O      -3.413980   -1.825895   -1.151250
H       0.920119    1.903147   -0.269011
H      -0.624000    1.742972   -1.129315
H      -0.609082    1.940891    0.632511
H       0.515255   -0.489700   -0.887791
H       0.532487   -0.289447    0.873298
H      -0.847464   -2.428008   -0.646568
H      -0.972923   -2.260121    1.125586
H      -2.623334   -4.336651    0.897628
H      -4.076447   -4.135469   -0.099824
H      -2.489068   -4.246297   -0.875038
H      -3.542170   -0.687037    1.327692
H      -4.745638   -1.978681    1.131380
H      -3.352589   -2.212343    2.209519
H      -3.092518   -0.917354   -1.209667
