14

O      -0.029899   -0.056041   -0.398167
C      -0.047612    1.100191   -0.117899
C      -1.142894    2.142575    0.220827
N      -0.045665    3.082240    0.608989
C       1.031057    2.193008    0.117124
C       2.033007    2.125511    1.284215
O       1.379122    2.812189    2.356761
C       0.136726    3.251686    1.994102
O      -0.656961    3.693489    2.770065
H      -1.708051    2.484107   -0.650950
H      -1.833364    1.901293    1.034015
H       1.491913    2.525812   -0.817814
H       2.261866    1.102331    1.596266
H       2.965665    2.645201    1.051297
