17

C      -0.046214    1.493741   -0.301882
N      -0.153731    0.034627   -0.264449
C      -0.187636   -0.567808    1.066819
C      -1.421690   -0.490626    0.238397
C       1.379128    1.933502   -0.223815
C       2.289765    2.346891   -1.146014
C       3.456571    2.590455   -0.375210
N       3.269370    2.348967    0.898977
O       1.945316    1.931763    0.998573
H      -0.469697    1.843246   -1.248613
H      -0.610508    1.977038    0.515229
H       0.352155   -1.504222    1.168570
H      -0.117585    0.093805    1.927409
H      -2.184114    0.223458    0.546052
H      -1.801449   -1.368352   -0.275835
H       2.151189    2.454724   -2.208516
H       4.426468    2.936151   -0.704333
