15

C      -0.053794    1.498587    0.031949
C      -0.045616   -0.016083    0.030923
O       0.683448   -0.440202   -1.143746
C       0.812247   -1.741655   -1.339920
C       1.443018   -2.424666   -2.350280
O       2.102284   -1.921676   -3.416136
N       1.288804   -3.742341   -2.090672
N       0.627996   -3.939057   -1.024541
O       0.294462   -2.630839   -0.498207
H       0.965326    1.892241    0.068414
H      -0.543725    1.884704   -0.865705
H      -0.598157    1.861379    0.908411
H       0.448774   -0.422483    0.919767
H      -1.058720   -0.429965   -0.013152
H       2.423799   -2.669636   -3.933151
