17

C       0.800090    1.194247   -0.708894
C       0.053901   -0.015425   -0.132660
C       0.768604   -0.605317    1.068130
C       0.672961   -2.021137    1.543730
N       1.993623   -1.409287    1.031843
C       1.919210   -2.289449   -0.189939
C       0.661036   -2.970357    0.381551
O       0.065239   -3.978584    0.133690
H       1.792671    0.911704   -1.074069
H       0.245295    1.635373   -1.541779
H       0.939331    1.970582    0.051015
H      -0.945208    0.289934    0.201085
H      -0.110779   -0.764703   -0.911867
H       0.827098    0.097813    1.899641
H       0.492774   -2.276857    2.582351
H       1.866074   -1.768583   -1.148311
H       2.763950   -2.983752   -0.200147
