16

C       0.105262    1.538417   -0.250347
C      -0.068190    0.082183    0.106850
N       1.117834   -0.785152    0.020534
C       0.481746   -0.563472    1.333024
C       1.313242    0.151148    2.382002
C       2.371213   -0.770092    2.954612
O       2.528022   -0.993484    4.127723
H       1.076553    1.918913    0.072530
H       0.045403    1.671591   -1.335669
H      -0.680159    2.149120    0.207845
H      -1.007537   -0.346649   -0.241658
H       0.876382   -1.700256   -0.348516
H      -0.112929   -1.382893    1.735535
H       1.834339    0.997571    1.919676
H       0.690635    0.526824    3.199433
H       3.014624   -1.248679    2.182955
