21

C       0.051644    1.557854   -0.029126
C       0.024545    0.042157   -0.001042
C      -1.123902   -0.575137   -0.777362
C       1.337874   -0.699303    0.004630
O       2.516061    0.042123    0.004032
C       0.477077   -0.710183    1.252296
C       0.919988   -0.008256    2.522376
C       2.178843   -0.558780    3.161651
O       3.110067   -1.045077    2.562805
H       0.996159    1.954466    0.346397
H      -0.054614    1.912562   -1.060489
H      -0.774109    1.985261    0.552019
H      -1.097254   -0.264044   -1.828208
H      -1.085705   -1.668856   -0.752633
H      -2.091603   -0.267530   -0.363137
H       1.383696   -1.627763   -0.567325
H       3.075891   -0.355482    0.688658
H      -0.048514   -1.642533    1.445075
H       1.134838    1.054064    2.341248
H       0.121234   -0.017192    3.273710
H       2.228011   -0.459076    4.268317
