17

C       0.047781    1.521590    0.028074
O       1.211276    0.656616    0.013891
C      -0.070583    0.073142   -0.001616
C      -0.607668   -0.996472    0.938572
C      -1.838119   -1.146349   -0.031413
C      -2.176805   -2.631710   -0.062485
O      -0.862165   -3.211082   -0.070441
C      -0.030057   -2.071084   -0.044947
C      -0.602128   -0.957443   -0.987435
H      -0.107013    2.067414    0.957827
H      -0.101736    2.104659   -0.879669
H      -0.616516   -1.022325    2.027340
H      -2.643791   -0.413301   -0.018874
H      -2.732388   -2.968326    0.821347
H      -2.727251   -2.932179   -0.962413
H       1.021646   -2.347554   -0.047525
H      -0.604703   -0.939169   -2.076389
