21

C       0.040478    1.399253    0.098052
O      -0.015597   -0.014160    0.013506
C       0.682513   -0.542193   -1.067982
O       2.064205   -0.276772   -0.894270
C       2.867799   -1.010984   -1.799556
C       2.773270   -2.512119   -1.520031
C       1.333000   -2.935700   -1.340490
C       1.044750   -4.409688   -1.380847
C       0.388123   -2.016457   -1.142951
H       1.057609    1.752672    0.298379
H      -0.319707    1.867189   -0.831095
H      -0.615111    1.692120    0.921006
H       0.351160   -0.033732   -2.000897
H       2.558949   -0.805532   -2.838352
H       3.889905   -0.642464   -1.676149
H       3.234332   -3.073906   -2.343484
H       3.345707   -2.766216   -0.617103
H       1.624158   -4.942017   -0.615361
H      -0.014671   -4.620142   -1.213366
H       1.334708   -4.843271   -2.346651
H      -0.655988   -2.288821   -1.020250
