19

C      -0.030359    1.646316    0.176916
C       1.459025    1.234977    0.053766
C       1.121647    0.023385    1.007295
C      -0.001305    0.090504   -0.045833
O      -1.068135   -0.751701   -0.295760
C      -1.563888   -0.455320   -1.604868
O      -0.587973   -0.462388   -2.609824
C       0.411123    0.566260   -2.459812
C       1.085212    0.278818   -1.126658
H      -0.360406    1.979158    1.163729
H      -0.442419    2.282755   -0.605611
H       2.324322    1.888566    0.136440
H       1.788233   -0.840773    0.954442
H       0.863877    0.281813    2.037376
H      -2.273664   -1.247263   -1.847136
H      -2.073912    0.523295   -1.576358
H       1.077445    0.456541   -3.318358
H      -0.059198    1.556812   -2.517144
H       1.751587   -0.583125   -1.228643
