16

C       0.060110    1.381163    0.044387
O       0.024309   -0.049690   -0.030268
C       0.642226   -0.571876   -1.084749
N       1.258600    0.064111   -2.029069
N       1.714239   -0.956641   -2.865209
C       2.462590   -0.658763   -4.057685
C       1.373354   -2.214163   -2.428398
O       1.610701   -3.298721   -2.917772
N       0.664642   -1.928225   -1.246746
H       1.093373    1.735225    0.096839
H      -0.422771    1.821620   -0.832304
H      -0.481845    1.641727    0.952926
H       1.873582   -0.043611   -4.745594
H       3.390348   -0.130384   -3.815480
H       2.698512   -1.613101   -4.531369
H       0.253475   -2.621614   -0.646933
