23

C      -0.030316    1.507681   -0.005656
C       0.076527   -0.022595   -0.093334
C       0.817474   -0.470351   -1.360199
C       0.700017   -0.577050    1.174460
C       2.194273   -0.331496    1.525875
C       2.340065   -1.837688    1.909670
C       0.847625   -2.083967    1.567290
C      -0.127901   -1.736336    2.699465
O      -0.144375   -0.337282    2.334910
H       0.963099    1.970753    0.017330
H      -0.564259    1.911084   -0.872014
H      -0.565766    1.805910    0.899327
H      -0.942747   -0.431251   -0.131847
H       1.827004   -0.048149   -1.407465
H       0.904931   -1.560570   -1.415092
H       0.281773   -0.134114   -2.253506
H       2.821378   -0.031487    0.682685
H       2.326133    0.386886    2.337241
H       3.024567   -2.381411    1.254520
H       2.621321   -2.047237    2.945552
H       0.596901   -2.922026    0.917056
H      -1.125729   -2.184200    2.603164
H       0.234852   -1.896608    3.723353
