16

O      -0.081993    1.374058    0.053415
N       0.057215   -0.029043    0.059482
C      -1.063990   -0.601895    0.053263
C      -1.491651   -2.062196   -0.024175
C      -2.304430   -2.144537    1.278873
O      -3.049428   -0.893435    1.210378
C      -2.561243   -0.312877   -0.007951
C      -2.610749   -1.535958   -0.988493
O      -2.103302   -1.331207   -2.277916
H       0.836402    1.664777    0.051570
H      -0.821586   -2.876336   -0.287549
H      -3.003174   -2.987434    1.308433
H      -1.677202   -2.158215    2.176209
H      -3.011987    0.658776   -0.189821
H      -3.559357   -2.088738   -0.975320
H      -2.717376   -0.768669   -2.761036
