17

C      -0.346872    1.410607    0.150954
C       0.082935   -0.039945    0.059285
O       1.145011   -0.247591   -0.906038
C       2.052952   -0.732669    0.098442
C       0.972685   -0.632865    1.195680
N       1.272309    0.171349    2.350672
C       0.938924   -0.194710    3.622400
O       0.360967   -1.214284    3.927998
H       0.496812    2.069048    0.381451
H      -0.767859    1.731386   -0.806467
H      -1.111560    1.538726    0.924021
H      -0.780796   -0.673021   -0.181408
H       2.423649   -1.740243   -0.122616
H       2.913889   -0.063743    0.240462
H       0.613359   -1.589467    1.571555
H       1.746878    1.051544    2.224271
H       1.267826    0.560616    4.363094
