21

C      -0.005369    1.495485    0.628619
C      -0.051160    0.104948   -0.031083
C       1.031427   -0.798992    0.572584
C      -1.463902   -0.481194    0.071402
C      -2.502537    0.187751   -0.826995
C      -3.928103   -0.277977   -0.607435
O      -4.692420   -0.550908   -1.498226
C      -1.715849   -1.861254    0.519495
O      -1.912939   -0.755442    1.409091
H       0.997587    1.923971    0.544685
H      -0.701602    2.202336    0.168102
H      -0.256124    1.417655    1.691109
H       0.160693    0.224289   -1.102465
H       0.810015   -1.020614    1.621662
H       1.126812   -1.743932    0.030159
H       2.002945   -0.297585    0.535682
H      -2.498514    1.269387   -0.630859
H      -2.247086    0.046922   -1.881793
H      -4.235894   -0.328742    0.457900
H      -2.626075   -2.369475    0.199865
H      -0.894638   -2.522777    0.779082
