16

C       0.112809    1.414657   -0.345535
C       1.412786    2.033196    0.270277
C       2.165359    0.806138    0.692731
C       3.389026    0.339814    1.112392
N       3.211149   -0.995146    1.338417
N       1.951340   -1.431294    1.091555
C       1.329877   -0.327495    0.703365
C      -0.075193    0.001872    0.292319
H      -0.759972    2.057384   -0.205059
H       0.257872    1.297591   -1.424321
H       1.941086    2.663983   -0.451419
H       1.173297    2.671979    1.130667
H       4.348735    0.807965    1.265859
H       3.905853   -1.662614    1.626763
H      -0.739191    0.044320    1.165193
H      -0.513119   -0.716037   -0.406709
