11

F       0.030018    0.094524   -0.251209
C      -0.081607    1.380270   -0.061708
N      -1.182899    1.848381    0.349625
O      -1.211881    3.247732    0.525667
C      -0.121084    4.043082    0.268579
N      -0.172887    5.290444    0.435698
C       1.130558    3.387253   -0.216072
N       2.181629    4.012122   -0.483813
O       1.065518    1.998160   -0.359033
H      -1.098044    5.570488    0.769170
H       2.920846    3.381323   -0.798766
