16

C      -0.007731    1.404777   -0.026560
N       0.019108   -0.038335    0.133686
C      -1.184476   -0.719659    0.043327
C      -2.448613   -0.204502    0.028581
O      -3.374351   -1.227059   -0.000527
C      -2.700324   -2.378398   -0.017835
C      -1.346945   -2.161080    0.012440
C      -0.321095   -3.196288    0.037288
O      -0.539210   -4.388478   -0.012172
H       1.011414    1.792651    0.030888
H      -0.457709    1.729895   -0.978325
H      -0.584331    1.852725    0.790298
H       0.776453   -0.485220   -0.361343
H      -2.854225    0.790488    0.046867
H      -3.277796   -3.287646   -0.045322
H       0.723570   -2.818487    0.116460
