18

C      -0.055853    1.531657    0.011053
C       1.305165    0.835190   -0.006192
C       0.040439    0.052876    0.002071
C      -0.537658   -1.023339    0.933412
N      -1.763877   -1.017780    0.014075
C      -0.556063   -1.013206   -0.929318
C       0.113763   -2.053603   -0.010113
C       1.261583   -2.946016   -0.026308
O      -0.105678   -3.439569   -0.015483
H      -0.361438    2.024984    0.927713
H      -0.379470    2.034887   -0.893959
H       1.885104    0.879682   -0.922680
H       1.903134    0.869802    0.899067
H      -0.622107   -1.022358    2.020151
H      -2.168459   -1.960143    0.012946
H      -0.661970   -1.000410   -2.014101
H       1.805205   -3.125876   -0.952320
H       1.823376   -3.135878    0.886771
