18

C       0.073925    1.490214   -0.295033
N       0.070169    0.056070    0.001991
C      -1.043958   -0.512786    0.834075
C      -0.111902   -1.736684    1.155484
C      -0.422294   -2.214927    2.557316
C      -0.654035   -1.093026    3.238912
C      -0.469263    0.013249    2.207324
O      -0.716420    1.328509    2.593206
C       0.741710   -0.426440    1.256256
H       1.057867    1.751287   -0.700787
H      -0.661625    1.677828   -1.085069
H      -0.146033    2.148209    0.552029
H      -2.085949   -0.525480    0.500421
H       0.112952   -2.424236    0.344980
H      -0.447161   -3.243061    2.890068
H      -0.929830   -0.945902    4.275067
H      -0.195062    1.515589    3.381442
H       1.819979   -0.334635    1.422741
