22

C      -0.087637    1.588948    0.012912
C       0.085614    0.072492   -0.011442
C       0.861730   -0.508909   -1.205797
C       1.567127   -1.783806   -0.662269
C       0.695254   -3.039948   -0.845014
C       2.946949   -1.999189   -1.292625
N       1.693246   -1.439010    0.755979
C       0.865460   -0.448512    1.206142
O       0.763563   -0.064769    2.352233
H       0.876917    2.095289   -0.101706
H      -0.746684    1.928131   -0.792067
H      -0.514681    1.896650    0.970852
H      -0.906991   -0.394608    0.052004
H       0.230842   -0.734951   -2.069141
H       1.621231    0.211042   -1.530518
H       0.596339   -3.294552   -1.905385
H       1.141443   -3.899657   -0.333594
H      -0.307070   -2.887878   -0.433510
H       3.592184   -1.133782   -1.117495
H       3.439218   -2.884983   -0.875401
H       2.854935   -2.150366   -2.373006
H       2.204007   -2.009382    1.413145
