17

C      -0.068009    1.460775    0.019587
C      -0.003221    0.008218    0.014343
C       0.065767   -1.197415    0.011810
C       0.082085   -2.611874    0.001101
C       1.162526   -3.404975    0.123399
C       0.828237   -4.866015    0.070284
C      -0.698995   -4.878141   -0.112732
O      -1.390655   -5.856812   -0.204332
C      -1.187900   -3.423566   -0.158261
H       0.526530    1.887611   -0.796139
H      -1.098135    1.813700   -0.099592
H       0.318095    1.871976    0.959217
H       2.172216   -3.033428    0.247647
H       1.309060   -5.401293   -0.759593
H       1.100641   -5.416871    0.980649
H      -1.917670   -3.241519    0.639858
H      -1.708971   -3.225915   -1.102783
