20

C       0.555776    1.038112   -0.471753
O       0.908985   -0.306955   -0.186514
C       0.841257   -0.653173    1.178110
C       1.948477   -0.059563    2.022801
C      -0.523872   -0.881386    1.758212
C       0.398019   -2.069765    1.484675
C       0.030347   -3.144847    0.493766
N      -0.374271   -2.729810   -0.745989
O       0.053352   -4.315695    0.826028
H       1.281342    1.747824   -0.055424
H       0.553968    1.139002   -1.559266
H      -0.441512    1.283064   -0.083149
H       1.887756    1.033019    2.060799
H       1.886688   -0.427478    3.050051
H       2.925886   -0.335902    1.615292
H      -0.722443   -0.612321    2.789921
H      -1.368806   -0.778009    1.085965
H       0.863645   -2.517970    2.354532
H      -0.057512   -1.824205   -1.062621
H      -0.490527   -3.464827   -1.426386
