18

N      -0.017813   -1.173727   -0.037668
C       0.005143   -0.020506   -0.011710
C      -0.007491    1.458829   -0.027215
O      -0.699403    1.887622    1.107915
C      -1.448714    3.100104    0.992459
C      -0.734259    4.240931    0.250506
C       0.791042    4.265508    0.438684
C       1.524450    3.232731   -0.424451
O       1.326046    1.875543   -0.037510
H      -0.523182    1.784838   -0.948282
H      -2.420827    2.894215    0.522587
H      -1.639096    3.384979    2.030805
H      -0.955584    4.194318   -0.823114
H      -1.173644    5.181067    0.602416
H       1.170004    5.251993    0.146119
H       1.057804    4.116749    1.490787
H       1.229192    3.360544   -1.479068
H       2.605208    3.380522   -0.360014
