17

O       0.008344    0.058077   -0.259910
C       0.063673    1.259432   -0.102272
N       1.195673    1.952832    0.164758
C       2.596235    1.511340    0.047765
C       3.013236    3.011637   -0.006815
C       3.047534    3.701030   -1.392180
N       2.059787    3.017831   -2.252144
C       1.598251    4.052634   -1.304337
C       1.503598    3.382897    0.097454
H      -0.826215    1.923648   -0.133437
H       2.948883    0.969550    0.930535
H       2.788804    0.927105   -0.854357
H       3.730820    3.375962    0.724484
H       3.875629    4.248446   -1.824885
H       2.103226    3.447792   -3.174669
H       1.058452    4.925488   -1.650969
H       1.098239    4.009044    0.894402
