17

O      -0.038077    0.009459   -0.407615
C      -0.065491    1.183741   -0.110985
C      -1.281363    2.044446    0.219330
C      -0.753088    3.488010    0.191484
C       0.759100    3.343567    0.471457
N       1.045838    1.993441    0.006830
C       2.374707    1.439856   -0.071388
C       3.072002    1.449846    1.225723
N       3.609906    1.488391    2.247344
H      -2.093850    1.846251   -0.481335
H      -1.630892    1.750160    1.215798
H      -0.900574    3.921333   -0.801745
H      -1.239445    4.143088    0.915903
H       1.359280    4.079470   -0.074613
H       0.995533    3.448514    1.539432
H       2.262485    0.407333   -0.419704
H       2.990435    1.985195   -0.797761
