18

C      -0.011261    1.513405    0.018420
C      -0.038803    0.002817   -0.003567
C      -1.261611   -0.681446    0.640026
C      -1.162987   -2.182041    0.570605
C      -0.277435   -1.431722    1.529730
N       0.895706   -0.749943    0.927553
C       1.569227   -1.451522   -0.211315
C       0.644348   -0.708337   -1.202276
O       0.531922   -0.662764   -2.390250
H       0.989013    1.892148   -0.211229
H      -0.709136    1.909228   -0.727257
H      -0.303043    1.887208    1.004631
H      -2.176221   -0.161700    0.896430
H      -1.983295   -2.704529    1.052975
H      -0.784741   -2.690483   -0.310482
H      -0.297836   -1.615516    2.597722
H       2.624097   -1.171821   -0.303039
H       1.494033   -2.543516   -0.220263
