18

C       0.195730    1.098831    0.442323
O      -0.183003    0.139624   -0.532382
C      -1.419721   -0.486773   -0.288416
C      -1.861002   -1.153209   -1.614278
N      -1.252180   -2.478298   -1.546821
C      -0.793740   -2.801133   -0.312487
O      -0.100456   -3.740488    0.023908
C      -1.295091   -1.714472    0.645002
O      -0.443282   -1.584887    1.745192
H       1.131661    1.542483    0.094363
H      -0.561126    1.894377    0.526103
H       0.347270    0.641678    1.423696
H      -2.161821    0.242246    0.064280
H      -2.954078   -1.211486   -1.690164
H      -1.476955   -0.577368   -2.459281
H      -1.020953   -3.028074   -2.358369
H      -2.312995   -2.000472    0.966672
H       0.110799   -2.381870    1.727579
