17

C       0.029887    1.571392    0.156014
C      -0.033593    0.059300   -0.076365
N      -1.380664   -0.476488   -0.008384
C      -2.130762   -0.687198    1.160405
C      -3.344759   -1.178767    0.894093
C      -3.472874   -1.329838   -0.598351
C      -2.117621   -0.836029   -1.127881
O      -1.733763   -0.762716   -2.275002
H       1.065331    1.920201    0.092703
H      -0.558382    2.101235   -0.598359
H      -0.357376    1.841507    1.143791
H       0.334123   -0.186150   -1.076013
H       0.595265   -0.466931    0.651895
H      -1.682498   -0.452986    2.116278
H      -4.102779   -1.430337    1.619255
H      -3.638561   -2.362326   -0.927296
H      -4.277529   -0.729717   -1.039012
