17

O       0.107137    1.296114    0.224544
C      -0.029980   -0.011695   -0.302810
C      -1.436973   -0.532891   -0.099398
C      -2.620734    0.272733   -0.669606
N      -3.773012   -0.415240   -0.037075
C      -3.252011   -1.080579    0.915192
C      -3.015983   -2.567023    0.756253
C      -1.590478   -1.983683    0.423969
N      -1.824614   -0.792575    1.295103
H      -0.161913    1.245319    1.149754
H       0.193977    0.059638   -1.372632
H       0.700140   -0.702666    0.143415
H      -2.496645    1.332867   -0.414595
H      -2.751674    0.197328   -1.753850
H      -2.927173   -3.171695    1.662701
H      -3.617570   -3.055240   -0.008576
H      -0.695752   -2.586906    0.569897
