21

C       0.061527    1.492722   -0.198329
C      -0.018487   -0.002626    0.138397
C      -1.425754   -0.534766    0.124399
C      -2.497510   -0.227994    1.169219
C      -3.252000   -1.546804    0.732106
C      -4.220350   -1.159151   -0.365227
C      -3.522724   -0.800329   -1.448151
C      -2.071218   -1.036664   -1.203700
C      -1.936389   -1.951424   -0.013344
H       1.095766    1.849402   -0.171281
H      -0.340471    1.691098   -1.197163
H      -0.516087    2.089689    0.515234
H       0.590977   -0.572868   -0.574658
H       0.427241   -0.178140    1.127215
H      -2.075841   -0.338954    2.172649
H      -3.060110    0.709969    1.107622
H      -3.634390   -2.176008    1.534331
H      -5.285332   -1.035040   -0.211196
H      -3.916056   -0.362562   -2.357370
H      -1.371864   -1.131992   -2.027249
H      -1.416071   -2.902705    0.001196
