18

C      -0.049225    1.559616    0.195629
C       0.060197    0.063868   -0.030314
C       0.477582   -0.562633   -1.321732
C       0.878917    0.215265   -2.557634
O       1.738493   -0.529096   -3.404462
C       1.399509   -0.680054   -0.091521
C       2.693397    0.030511   -0.023968
O       3.692622   -0.443033    0.465709
H       0.688697    2.138498   -0.362729
H      -1.040167    1.912379   -0.108940
H       0.077156    1.798627    1.256416
H      -0.694296   -0.496466    0.516113
H      -0.007749   -1.502110   -1.573022
H      -0.014898    0.420158   -3.157114
H       1.317015    1.189046   -2.300104
H       2.522489   -0.765834   -2.897247
H       1.441858   -1.654057    0.384701
H       2.715031    1.053018   -0.460598
