20

C       0.097808    1.507834    0.119366
C      -0.035503    0.021472   -0.029206
C      -0.888123   -0.830560    0.823953
N       0.581354   -0.966863    0.962283
C       0.981437   -1.801332   -0.200597
C       2.248326   -2.585904   -0.222214
C       0.905173   -3.292456   -0.235637
C       0.475281   -0.796702   -1.228780
O      -0.453078   -1.321333   -2.153025
H       1.094660    1.849764   -0.180119
H      -0.639559    2.031331   -0.501587
H      -0.063907    1.809591    1.158131
H      -1.351845   -0.358919    1.685355
H      -1.450069   -1.650878    0.385533
H       2.841785   -2.581695   -1.131185
H       2.821649   -2.614354    0.698035
H       0.592842   -3.796893    0.672959
H       0.570574   -3.756088   -1.157050
H       1.296744   -0.277728   -1.743019
H      -0.696080   -0.624697   -2.771475
