18

O       0.282505    1.195731   -0.146465
C       0.123732   -0.198729   -0.038487
C       0.258275   -0.647519    1.460892
O       0.811844    0.313313    2.315282
C      -1.276766   -0.784030    1.504031
C      -2.175641   -1.368426    2.514093
N      -2.096436    0.096243    2.333592
C      -1.399761   -0.593217   -0.014467
O      -2.253585    0.466934   -0.377796
H      -0.602904    1.526367   -0.382143
H       0.759369   -0.717181   -0.762503
H       0.787434   -1.596632    1.593385
H       0.791999    1.134739    1.795193
H      -3.122154   -1.813060    2.218057
H      -1.726682   -1.799669    3.405696
H      -1.494115    0.519590    3.038996
H      -1.638696   -1.490046   -0.593858
H      -2.641636    0.765267    0.466227
