14

O       0.004427   -0.039316   -0.002517
C      -0.000243    1.167684    0.001862
N      -1.088059    1.997617   -0.004488
C      -0.837081    3.433701    0.033873
C       0.683419    3.517247   -0.046677
C       1.442720    4.582044   -0.726126
O       1.361390    4.527412    0.692132
C       1.222579    2.108520    0.016229
O       2.374058    1.776995    0.061876
H      -2.020161    1.612402   -0.003865
H      -1.331630    3.945275   -0.799302
H      -1.186343    3.885356    0.969946
H       2.416385    4.337582   -1.146691
H       0.894832    5.394572   -1.201420
