14

O      -0.007032    1.392966   -0.005122
C      -0.051153    0.013906    0.031455
C      -1.329810   -0.789578    0.081457
C      -2.413795   -0.104242   -0.751899
N      -1.451861    0.091366   -1.892599
C      -0.456573   -0.764224   -1.197204
C       0.302200   -1.770501   -1.855144
N       0.913418   -2.591917   -2.396785
H      -0.411740    1.650102   -0.849918
H       0.767031   -0.415102    0.601578
H      -1.484476   -1.596254    0.786053
H      -3.231592   -0.783631   -1.004871
H      -2.820070    0.831687   -0.356846
H      -1.782726   -0.325780   -2.754946
