17

C      -0.028301    1.460097   -0.141603
C       1.336134    2.059992    0.109248
C       2.438260    1.359680    0.378767
C       2.511279   -0.145452    0.478934
C       1.169795   -0.763689    0.234317
C       0.069091   -0.017560   -0.037523
O      -1.021497   -0.810590   -0.219852
C      -0.596779   -2.096954   -0.058043
C       0.731348   -2.132625    0.220457
H      -0.757601    1.863886    0.576964
H      -0.401130    1.767137   -1.130542
H       1.392719    3.144099    0.059840
H       3.372032    1.891672    0.543565
H       3.257779   -0.524886   -0.235252
H       2.903031   -0.428834    1.467623
H      -1.353792   -2.855149   -0.172652
H       1.325496   -3.016980    0.394417
