17

C       0.001019    1.525182    0.060149
C       0.009809    0.034938   -0.056609
C       0.008151   -0.762100   -1.165258
C       0.019716   -2.108303   -0.680580
C       0.022839   -3.370466   -1.480907
N       0.027965   -2.145001    0.636096
N       0.021923   -0.832196    1.026796
C       0.027938   -0.480082    2.379089
O       0.039191   -1.253679    3.294295
H       0.885908    1.905331    0.582091
H      -0.007898    1.962041   -0.940524
H      -0.882188    1.894053    0.592919
H      -0.000213   -0.431724   -2.192349
H       0.900236   -3.419946   -2.134950
H       0.033665   -4.234194   -0.813880
H      -0.863118   -3.432346   -2.122250
H       0.022397    0.617209    2.500330
