18

C      -0.066539    1.506248   -0.008598
C      -0.009090   -0.023074   -0.012908
C       0.727991   -0.573508   -1.238875
N       0.789572   -2.037311   -1.278145
C      -0.336805   -2.710899   -1.766897
N      -0.490058   -3.968505   -1.759492
C       1.943928   -2.660449   -0.805768
O       2.155168   -3.839804   -0.732895
H       0.938120    1.943050    0.001401
H      -0.584841    1.888262   -0.895113
H      -0.598106    1.876728    0.872139
H       0.491509   -0.387568    0.892171
H      -1.024344   -0.437858    0.010661
H       0.249387   -0.219527   -2.159137
H       1.753659   -0.192132   -1.259800
H      -1.066276   -1.993201   -2.163965
H      -1.384518   -4.201311   -2.189549
H       2.687156   -1.895981   -0.498201
