23

C      -0.042641    1.548875   -0.404919
C       0.028349    0.124593    0.157722
C      -1.336330   -0.531760    0.235247
C      -1.922031   -1.272494   -0.940381
C      -1.529716   -2.030339    0.310451
C      -0.373435   -2.998597    0.299341
O       0.373095   -2.978380    1.528918
C      -0.815327   -4.440126    0.025405
O       0.278938   -5.326005    0.104092
H       0.950244    2.007044   -0.448660
H      -0.461628    1.552929   -1.416723
H      -0.677462    2.189352    0.217572
H       0.699110   -0.477324   -0.465234
H       0.481545    0.141637    1.156335
H      -2.053990    0.038867    0.821764
H      -2.975464   -1.161953   -1.172076
H      -1.288432   -1.400140   -1.813549
H      -2.358597   -2.361400    0.935771
H       0.359490   -2.718422   -0.463930
H      -0.261875   -2.994717    2.254338
H      -1.609437   -4.712649    0.746024
H      -1.243655   -4.523291   -0.979197
H       0.790277   -5.022660    0.866320
