12

C       0.007581    1.439072    0.043453
N      -0.027504   -0.011903    0.032880
N      -0.220755   -0.717913   -1.088284
N      -0.195073   -1.971278   -0.740163
C       0.016100   -1.987665    0.601921
C       0.122488   -3.189934    1.454306
O       0.032023   -4.319361    1.048145
N       0.124563   -0.757044    1.107811
H       0.976453    1.780102    0.412901
H      -0.145761    1.772561   -0.981816
H      -0.785330    1.820697    0.689377
H       0.296686   -2.948178    2.522872
