18

C      -0.078879    1.447801    0.037291
C       0.050174   -0.043254    0.056211
C      -0.550020   -1.105831   -0.839460
N       0.486147   -2.095864   -0.330440
C       1.256418   -0.946923    0.358549
C       1.049126   -1.619582    1.729239
C      -0.215915   -2.166783    1.045150
C      -1.064058   -0.976461    0.569276
O      -2.225856   -0.442218    1.078729
H       0.543439    1.898261   -0.743586
H      -1.117979    1.739977   -0.141770
H       0.221098    1.881207    0.998590
H      -0.995819   -1.097040   -1.826936
H       2.242965   -0.681460   -0.025118
H       1.787372   -2.406466    1.904636
H       0.935715   -0.992366    2.616942
H      -0.697609   -3.102497    1.334432
H      -2.958117   -1.023770    0.846617
