15

O       0.103224    1.372013    0.296345
C       0.045979   -0.025350    0.012297
C      -1.346760   -0.537860   -0.055845
C      -2.001863   -1.207183   -1.027924
O      -1.584839   -1.558426   -2.269712
N      -3.289067   -1.495655   -0.572974
C      -3.498680   -0.931566    0.691437
O      -4.523554   -0.917658    1.340284
N      -2.258994   -0.400190    1.006049
H      -0.375188    1.826082   -0.406206
H       0.558868   -0.281395   -0.924476
H       0.599680   -0.495747    0.833771
H      -1.487758   -2.517542   -2.324461
H      -4.051383   -1.823562   -1.141018
H      -2.126024    0.207709    1.796120
