18

C      -0.057684    0.645696    0.968478
O      -0.256909   -0.139361   -0.206201
C      -1.481601   -0.783836   -0.245835
C      -1.509409   -1.958711   -1.177539
O      -0.310416   -2.311934   -1.798890
C      -1.606354   -2.202092    0.321210
N      -0.472706   -2.847246    0.890365
C      -0.113349   -2.735247    2.193077
O      -0.704133   -2.078049    3.026921
H       0.970899    1.010241    0.932003
H      -0.741567    1.505816    0.975219
H      -0.217247    0.051913    1.874441
H      -2.356530   -0.137866   -0.172455
H      -2.380468   -2.140710   -1.799290
H       0.297463   -1.572701   -1.655629
H      -2.564914   -2.477036    0.750541
H       0.129328   -3.342206    0.247207
H       0.793175   -3.330419    2.421604
