19

C       0.120137    1.470233    0.178011
C      -0.139481    0.000499   -0.156203
C       0.559516   -0.423888   -1.447430
O       0.739551    0.343745   -2.377427
N       0.942700   -1.734956   -1.485912
C       1.552288   -2.327717   -2.639082
C       2.572589   -3.421321   -2.486900
C       1.202784   -3.729696   -3.059522
H       1.171727    1.637439    0.430156
H      -0.116097    2.093908   -0.686244
H      -0.489541    1.790518    1.027431
H       0.156706   -0.651540    0.674165
H      -1.215118   -0.161293   -0.308011
H       0.764471   -2.315843   -0.682797
H       1.701480   -1.578503   -3.405391
H       3.431669   -3.422219   -3.148622
H       2.786379   -3.776683   -1.483621
H       0.513708   -4.287660   -2.433252
H       1.111955   -3.943754   -4.118697
