17

C      -0.013352    1.457713   -0.124404
C       1.334522    0.799264    0.032597
C       2.147460    0.882212    1.288060
O       1.383784    0.440194    2.449333
C       0.308066   -0.368900    2.314153
N      -0.377830   -0.660748    1.281775
C       0.072348   -0.035025    0.092646
C       0.526988   -0.737094   -1.187983
N       1.785909    0.086677   -1.167945
H      -0.378757    2.018043    0.730296
H      -0.308468    1.856768   -1.092180
H       3.014636    0.222278    1.185702
H       2.493339    1.884903    1.557574
H       0.036784   -0.773569    3.287137
H       0.748723   -1.799141   -1.049488
H      -0.116285   -0.614688   -2.067725
H       1.900647    0.687442   -1.980432
