18

O      -0.074916    1.493849   -0.009239
C       0.055277    0.080088    0.069524
C      -1.347293   -0.520426   -0.033953
C      -2.046237   -0.240896   -1.352504
C      -2.550350   -1.348912   -1.900655
C      -2.218948   -2.563917   -1.099067
C      -0.738650   -2.880431   -1.013254
C      -1.390468   -2.047968    0.066058
H       0.805906    1.878856    0.004255
H       0.688799   -0.307085   -0.742352
H       0.514808   -0.224111    1.023538
H      -1.928928   -0.079282    0.788888
H      -2.089826    0.756772   -1.771186
H      -3.100841   -1.394746   -2.833963
H      -2.937740   -3.368759   -0.991153
H      -0.454328   -3.890658   -0.736202
H      -0.082038   -2.408903   -1.736648
H      -1.483155   -2.496417    1.048256
