14

O      -0.011390   -0.007790    0.115387
C      -0.020403    1.194675   -0.006132
N      -1.141257    2.008561   -0.118402
C      -0.754401    3.398670    0.081244
C      -0.058286    3.574589    1.459756
N       1.287285    3.297950    0.856454
C       0.682674    3.466550   -0.500895
C       1.162289    2.128901   -0.102217
H      -2.007953    1.658137    0.267017
H      -1.519511    4.104168   -0.236659
H      -0.051520    4.609473    1.810426
H      -0.367469    2.902549    2.267151
H       1.087667    4.106478   -1.275057
H       2.123305    1.732143   -0.400045
