21

C      -0.625584    1.293539    0.028805
C       0.058683   -0.074490   -0.056361
C       1.026216   -0.122574   -1.254869
O       0.379835    0.111329   -2.498084
C       0.795185   -0.524411    1.219121
C       1.784922    0.409807    1.908424
C       0.484900    0.084701    2.580897
C       1.139609   -1.924791    1.224869
C       1.408687   -3.098034    1.214229
H       0.070211    2.083465    0.333282
H      -1.004189    1.557202   -0.961587
H      -1.466467    1.289274    0.727360
H      -0.720701   -0.827378   -0.243758
H       1.773728    0.672778   -1.155942
H       1.563344   -1.080742   -1.258939
H      -0.184963   -0.646491   -2.680594
H       2.695218   -0.030886    2.296173
H       1.907630    1.402055    1.489041
H      -0.273821    0.856158    2.626048
H       0.499159   -0.586430    3.431173
H       1.654397   -4.130846    1.212583
