19

C       0.042004    1.511108   -0.048327
C      -0.103059    0.005981   -0.192332
O       0.941112   -0.469244   -1.024110
C       0.913123   -1.857512   -1.222489
C      -0.071601   -2.470436   -2.264837
N       1.063616   -3.084843   -3.042270
C       1.878423   -1.944793   -3.491962
C       2.036245   -2.388424   -2.093450
H       1.011268    1.761814    0.391832
H      -0.026136    1.998475   -1.025064
H      -0.747204    1.910908    0.595333
H      -0.051312   -0.485537    0.793906
H      -1.084378   -0.246822   -0.626163
H       0.849952   -2.382003   -0.258183
H      -0.723911   -3.248997   -1.864726
H      -0.663919   -1.754318   -2.844133
H       2.658720   -2.231289   -4.190125
H       1.395074   -0.994485   -3.704963
H       2.934101   -2.878384   -1.732377
