21

C      -0.087835    1.584635   -0.137658
C       0.067757    0.088881    0.040159
O       0.959661   -0.510748   -0.931814
C       1.400487   -1.472039    0.058679
C       2.882504   -1.797526    0.010175
C       3.721342   -0.694826    0.656353
O       3.214357   -0.381989    1.943643
C       1.970241    0.291727    1.851561
C       0.868293   -0.567059    1.200638
H       0.874332    2.101495   -0.141060
H      -0.579175    1.788319   -1.094407
H      -0.712164    2.003697    0.658793
H      -0.925275   -0.384761   -0.030198
H       0.806236   -2.393678   -0.033988
H       3.047963   -2.731556    0.559681
H       3.183357   -1.967249   -1.030227
H       4.755738   -1.020142    0.797575
H       3.728861    0.206778    0.022896
H       1.693829    0.557675    2.875369
H       2.114520    1.228446    1.294029
H       0.269855   -1.074040    1.960332
