22

C      -0.012300    1.528321   -0.014969
C       1.272707    0.779358   -0.033673
N      -0.014564    0.065652   -0.008267
C      -0.483913   -0.616017   -1.231027
C       0.604916   -0.892939   -2.275272
C       1.446802    0.361376   -2.533562
C       2.159102    0.753112   -1.250076
C       3.316220    1.719125   -1.301344
C       3.574246    0.252851   -1.052438
H      -0.362509    2.007585    0.896761
H      -0.314173    2.035813   -0.930319
H       1.819441    0.701495    0.906375
H      -0.945027   -1.561591   -0.922929
H      -1.280828   -0.015142   -1.688645
H       1.263844   -1.694998   -1.920354
H       0.132525   -1.251760   -3.196278
H       2.183264    0.184582   -3.324669
H       0.801587    1.177558   -2.887192
H       3.590248    2.131621   -2.267268
H       3.444988    2.408140   -0.472792
H       3.876768   -0.047927   -0.054474
H       4.026604   -0.331166   -1.847435
