16

C       0.069713    1.448254   -0.040237
N       0.042751    0.001844   -0.069133
C       0.466275   -0.625921    0.945288
N       0.553326   -2.003254    0.981096
C      -0.060961   -2.785947   -0.080225
C       0.621696   -4.067004   -0.264558
C       1.183115   -5.117213   -0.409838
C      -1.511718   -3.000068    0.152416
N      -2.635940   -3.161137    0.362398
H       0.700400    1.825606   -0.853780
H      -0.939195    1.840288   -0.211725
H       0.446431    1.864672    0.907955
H       0.837695   -0.151614    1.863658
H       0.607904   -2.444206    1.885772
H       0.025890   -2.170877   -0.985018
H       1.679762   -6.046340   -0.547942
