16

C       0.433745    1.340365    0.656112
C       0.081709   -0.042270    0.066966
C       0.324287   -1.152430    1.124756
O       0.538621   -0.931484    2.281608
C      -1.321228   -0.127208   -0.327265
C      -2.479445   -0.221997   -0.641048
C       1.066621   -0.353526   -1.091980
N       0.590389   -0.186502   -2.347943
O       2.205433   -0.688774   -0.830017
H       1.495717    1.360711    0.907317
H       0.215291    2.129076   -0.067223
H      -0.144333    1.514051    1.564697
H       0.252135   -2.181731    0.719092
H      -3.505936   -0.298440   -0.904907
H      -0.386393   -0.011891   -2.514556
H       1.200244   -0.395358   -3.121537
