17

C       0.078304    1.522818    0.018115
C      -0.039854    0.003398   -0.022462
N       0.667154   -0.532012   -1.177155
C       0.767771   -1.886172   -1.370628
N       0.394525   -2.733283   -0.494893
C       0.593668   -4.151241   -0.696284
C       1.371001   -2.237130   -2.654820
N       1.832846   -2.531669   -3.673187
H       1.125255    1.835419    0.075491
H      -0.368284    1.982015   -0.871401
H      -0.446251    1.918090    0.891751
H       0.395354   -0.447640    0.874224
H      -1.094927   -0.306037   -0.038504
H       0.713833    0.046648   -2.001099
H       1.038649   -4.420391   -1.664430
H       1.238151   -4.543442    0.099578
H      -0.369624   -4.665691   -0.602495
