17

N      -0.119663    1.467922    0.028206
C      -0.065501    0.053973   -0.065388
C      -1.207509   -0.955961   -0.019781
C      -0.528672   -1.814223   -1.091800
C       0.643524   -0.775485   -1.155756
O       0.662032    0.002534   -2.334959
C      -0.282234   -0.785681    1.176082
C       0.635212   -1.808347    1.604222
N       1.379856   -2.634415    1.924683
H       0.739812    1.837075    0.426524
H      -0.204046    1.857724   -0.906849
H      -2.270227   -0.788604    0.104478
H      -0.274197   -2.839047   -0.808348
H      -1.080212   -1.812709   -2.034050
H       1.644619   -1.154786   -0.910240
H       1.018234   -0.535870   -3.048504
H      -0.721566   -0.211766    1.985932
