13

N       0.058799    1.315700   -0.004827
C       0.040865   -0.046132    0.028727
N      -1.099008   -0.659118    0.118701
O      -1.084856   -2.058117    0.230056
N       0.058311   -2.793500    0.227280
C       1.188256   -2.184604    0.108454
C       1.316125   -0.752955   -0.013317
N       2.392762   -0.056368   -0.157460
O       3.526774   -0.863984   -0.201646
H       0.900107    1.736290   -0.365830
H      -0.816218    1.778842   -0.192127
H       2.064467   -2.819749    0.108906
H       4.240457   -0.223495   -0.292844
