17

O       0.035736   -0.035720   -0.003592
C      -0.041703    1.162195    0.016607
C      -1.167368    2.220183    0.108656
C      -0.031757    3.274468    0.028471
C       0.062347    4.403760   -1.058354
C       0.250111    5.418822    0.075232
N      -0.954343    5.296078    0.929168
C       0.175438    4.347008    1.105678
N       0.908821    2.159148   -0.045213
H      -1.859807    2.212612   -0.734577
H      -1.728703    2.214030    1.044183
H       0.955156    4.277061   -1.675951
H      -0.812417    4.555803   -1.694938
H       0.832408    6.331236    0.060624
H      -0.874475    5.991750    1.670987
H       0.676694    4.235392    2.059958
H       1.913322    2.124868   -0.144607
