17

C      -0.251940    1.498886   -0.013853
C       0.096968   -0.000564    0.027344
C       0.823109   -0.459799   -1.198585
C       2.095481   -0.868599   -1.333001
C       2.380612   -1.327559   -2.733599
O       1.577852   -2.464142   -3.117431
C       1.151331   -1.145365   -3.506000
C       0.136065   -0.550693   -2.533366
O      -0.989785   -0.199370   -2.792665
H       0.653281    2.110590   -0.080470
H      -0.883023    1.721556   -0.877247
H      -0.792624    1.789571    0.891542
H       0.698516   -0.223963    0.914852
H      -0.833514   -0.574913    0.115056
H       2.826175   -0.928630   -0.534411
H       3.373967   -1.284514   -3.167459
H       1.092594   -0.941878   -4.570144
