20

C      -0.054220    1.647243   -0.113096
C       0.030362    0.145000    0.051722
O       0.895700   -0.513046   -0.980210
C       1.742482   -0.927106    0.110502
C       2.398657   -2.012377    1.030947
N       2.174337   -0.777344    1.962506
C       2.692942    0.086457    0.802599
C       4.186319    0.166263    0.554649
C       0.762496   -0.701717    1.187472
H       0.922673    2.130885   -0.135067
H      -0.561647    1.878711   -1.055336
H      -0.642642    2.077253    0.704043
H      -0.974380   -0.284440   -0.023904
H       1.782597   -2.873659    1.293238
H       3.449667   -2.283723    0.931070
H       2.293126    1.095798    0.904898
H       4.652299   -0.789547    0.307341
H       4.377313    0.850311   -0.278661
H       4.690207    0.570433    1.439437
H       0.128122   -1.517047    1.532510
