20

O       0.021276    1.281491    0.473600
C       0.018686    0.018549   -0.172385
C      -1.373226   -0.540023   -0.271622
C      -2.558080    0.215724   -0.864982
C      -3.399751   -0.405109    0.278775
C      -4.111969   -1.685827   -0.142852
C      -2.938591   -2.602607   -0.576345
C      -1.731119   -1.939733    0.077289
N      -2.131925   -0.854298    1.011171
H      -0.445244    1.148328    1.308152
H       0.441078    0.181693   -1.170726
H       0.668193   -0.700589    0.350992
H      -2.419839    1.291405   -0.742297
H      -2.851166    0.001710   -1.898417
H      -4.001315    0.281807    0.874011
H      -4.642202   -2.118267    0.711798
H      -4.841108   -1.513952   -0.940189
H      -3.064196   -3.627578   -0.217884
H      -2.832487   -2.652046   -1.664661
H      -0.928697   -2.566540    0.454666
