15

C       0.005429   -1.208087    0.082912
C       0.044332   -0.008219    0.013133
C       0.054599    1.405796   -0.121282
C      -0.764472    2.279025   -1.089912
C       0.407074    3.316199   -1.095723
C       1.179965    2.402025   -0.126927
O       0.341601    2.221833    1.024239
C       2.585521    2.241391    0.000404
C       3.781600    2.134798    0.064450
H      -0.020188   -2.267216    0.158519
H      -0.915153    1.805691   -2.061428
H      -1.721915    2.613411   -0.686375
H       0.889752    3.403618   -2.070387
H       0.193479    4.309089   -0.695840
H       4.836462    2.032033    0.133959
