17

C      -0.005573    1.557440    0.031041
C      -0.000077    0.050757    0.013880
C      -1.176359   -0.671075    0.037448
N      -2.430976   -0.093478    0.133152
N      -1.134603   -2.032735    0.025382
C       0.028615   -2.846627   -0.007834
O      -0.101249   -4.061153   -0.007671
C       1.240683   -2.070632   -0.035621
C       1.199768   -0.704186   -0.020467
H       1.015697    1.941304   -0.031458
H      -0.557034    1.988350   -0.817075
H      -0.449484    1.967743    0.947571
H      -2.461468    0.883372   -0.116860
H      -3.189726   -0.613700   -0.284413
H      -1.991922   -2.565853    0.085856
H       2.172989   -2.618849   -0.063716
H       2.136515   -0.151871   -0.040717
