15

C      -0.061182    1.518945    0.012216
C       1.436334    1.892722   -0.036733
N       2.199472    1.476073    1.152291
C       2.297818    0.660506   -0.090307
C       1.332091   -0.457444   -0.060379
N       1.330429   -1.783214   -0.064131
N       0.022034   -2.051868    0.031674
N      -0.817986   -1.009462    0.095139
C       0.016994    0.018111    0.030808
H      -0.544091    1.936999    0.900656
H      -0.591059    1.898778   -0.868375
H       1.730643    2.801577   -0.550538
H       3.032904    2.055828    1.231185
H       3.233288    0.618669   -0.634696
H      -0.319085   -2.998965    0.028419
