14

C       0.011115    1.447351    0.082131
N       0.152428    0.004592    0.056615
C       0.600486   -0.586382   -0.967950
N       0.718457   -1.984424   -0.943450
C       1.185042   -2.744376   -1.978640
O       1.297623   -3.945261   -1.990076
N       1.532116   -1.938203   -3.069417
N       1.438472   -0.587687   -3.146373
N       1.002452    0.065363   -2.167357
H       0.597497    1.841710    0.919982
H       0.320086    1.948238   -0.839777
H      -1.036422    1.692810    0.291378
H       0.435635   -2.460708   -0.097941
H       1.890868   -2.386898   -3.898386
