15

N       0.022404    1.321770    0.051861
C      -0.075620   -0.032656    0.014912
N      -1.205946   -0.638502   -0.039249
C      -1.263639   -2.085499    0.004225
C      -0.017754   -2.821536   -0.537321
C       1.238360   -2.262907    0.077268
O       2.150490   -2.900314    0.537897
C       1.274192   -0.721110    0.083740
O       2.306758   -0.096526    0.138876
H       0.935011    1.732845   -0.045706
H      -0.802165    1.876184   -0.098697
H      -1.451490   -2.403204    1.040380
H      -2.141270   -2.406048   -0.566870
H      -0.066061   -3.901791   -0.377769
H       0.039998   -2.636518   -1.620111
