21

C       0.227159    1.439353    0.253918
C      -0.156290    0.003973   -0.127450
C       0.560810   -0.503579   -1.358573
C       1.978204   -1.035455   -1.214385
C       0.849366   -1.982300   -1.564756
O       0.415726   -2.932726   -0.637904
C       0.653958   -2.234452   -3.025917
C       0.318605   -1.116956   -3.671975
C       0.187909    0.064737   -2.732996
H       1.300917    1.519576    0.454371
H      -0.012286    2.144468   -0.549447
H      -0.308632    1.765018    1.151109
H       0.052140   -0.674347    0.706893
H      -1.239651   -0.051941   -0.297846
H       2.726127   -0.811668   -1.969093
H       2.353633   -1.089193   -0.195780
H       1.155446   -3.514348   -0.435387
H       0.801155   -3.213144   -3.468916
H       0.177789   -1.026513   -4.743096
H      -0.835347    0.466630   -2.736194
H       0.842902    0.894189   -3.029750
