19

C      -0.434185    1.484875   -0.184925
C       0.011616    0.036021   -0.100076
C       1.338344   -0.526044   -0.702795
C       2.161391    0.084882    0.488777
C       2.489044    1.493847    0.614163
N       2.816916    2.597555    0.731849
C       0.854830   -0.571037    1.065984
N       1.057004   -1.754592    0.140091
C       2.113290   -2.724531    0.404165
H      -0.804425    1.693509   -1.194502
H      -1.268564    1.650178    0.505254
H       0.338627    2.216195    0.044752
H      -0.814210   -0.636698   -0.342953
H       1.647869   -0.595324   -1.746897
H       3.069874   -0.471148    0.722982
H       0.591449   -0.693649    2.117817
H       1.776588   -3.382225    1.211581
H       2.242358   -3.338896   -0.492355
H       3.103423   -2.332047    0.684798
