18

O       0.001655   -0.110992    0.247755
C       0.013205    1.039638   -0.108854
C       1.290992    1.856932   -0.180232
N       2.455483    0.998677   -0.227391
C       3.715804    1.719969   -0.147017
C       3.864407    2.573308   -1.409907
C       2.660606    3.518834   -1.579777
C       1.316149    2.842468   -1.361179
O       0.330778    3.099595   -2.010183
H      -0.909293    1.589180   -0.373382
H       1.254609    2.509951    0.728358
H       2.360779    0.252824    0.451430
H       3.785273    2.367590    0.749851
H       4.530264    0.992190   -0.085385
H       4.790204    3.156532   -1.373745
H       3.927211    1.904009   -2.274171
H       2.717823    4.310262   -0.816162
H       2.645096    4.013507   -2.553916
