23

C       0.879198    1.347015    0.493146
O       1.049016   -0.041333    0.643302
C      -0.172594   -0.728993    0.825567
C       0.090002   -2.198855    0.972345
C       1.194957   -2.918774    0.248284
C       1.170367   -2.957883    1.757730
C       2.302956   -2.458563    2.608555
C       0.126366   -3.995060    2.202608
C      -0.973122   -3.213149    1.411764
H       0.408694    1.800022    1.380336
H       1.870435    1.786143    0.356515
H       0.258210    1.589622   -0.383836
H      -0.694799   -0.344054    1.720407
H      -0.843574   -0.544638   -0.034422
H       0.982305   -3.812845   -0.336504
H       1.950284   -2.267153   -0.177266
H       2.741986   -1.555154    2.177224
H       1.963001   -2.215675    3.622519
H       3.093561   -3.214094    2.700216
H       0.314351   -5.030183    1.896531
H      -0.054498   -3.981390    3.280812
H      -1.729213   -2.782701    2.074657
H      -1.484992   -3.751071    0.606303
