14

C       0.110887    1.450479    0.304642
N       1.086523    2.149015   -0.548305
C       2.178101    1.386761   -0.907379
C       2.128825    0.024437   -1.001811
O       3.307111   -0.399467   -1.464471
N       4.103576    0.768505   -1.654611
N       3.410145    1.785681   -1.323494
C       0.933696   -0.710123   -0.689064
C      -0.052334   -0.003275   -0.109881
H       0.392089    1.482996    1.376444
H      -0.848637    1.970600    0.219916
H       1.294450    3.097823   -0.273262
H       0.833909   -1.759440   -0.937709
H      -0.991915   -0.478158    0.150189
