17

C       0.041279    1.392206    0.021484
O      -0.108913   -0.005459   -0.099126
C       0.650688   -0.594865   -1.142890
C       2.141695   -0.716789   -0.804917
C       0.026407   -1.935445   -1.383675
C      -1.050854   -2.524896   -0.804921
O      -1.227655   -3.728249   -1.348331
N      -0.196657   -3.883574   -2.320733
N       0.502081   -2.836589   -2.310134
H       1.054867    1.681575    0.331137
H      -0.194446    1.906608   -0.922673
H      -0.663087    1.722210    0.788482
H       0.545420    0.011300   -2.059163
H       2.658523   -1.258969   -1.601018
H       2.605155    0.268227   -0.705139
H       2.268627   -1.264982    0.132847
H      -1.736492   -2.210865   -0.037726
