19

C      -0.122379   -1.142135   -0.355398
C      -0.043480    0.027726   -0.091470
C       0.080932    1.447224    0.235682
C       1.498493    1.954174    0.129489
C       2.677512    1.610937    1.038484
C       3.393956    2.826676    0.389248
C       3.610756    2.387182   -1.085477
C       2.089987    2.434138   -1.207778
C       1.969643    3.380727   -0.032374
H      -0.200229   -2.174378   -0.590848
H      -0.567735    2.033803   -0.428868
H      -0.297607    1.617251    1.253047
H       2.428966    1.797441    2.088108
H       3.154917    0.629082    0.941043
H       4.162019    3.375392    0.929980
H       4.079585    3.176625   -1.679920
H       4.130551    1.437439   -1.258072
H       1.486991    2.417097   -2.107335
H       1.466788    4.329780    0.087761
