19

C       0.028398    1.491599   -0.069172
C       0.004762   -0.015067   -0.049718
C       0.506872   -0.941660   -1.179854
O       1.856418   -0.892523   -1.569066
C       0.041271   -1.927291   -0.098547
C       0.548101   -1.004164    1.069183
C      -0.827580   -1.101675    1.764827
O      -1.262346   -0.127248    2.674901
C      -1.180823   -1.012852    0.266237
H       1.031490    1.843197   -0.335749
H      -0.667977    1.884277   -0.818295
H      -0.226097    1.946324    0.894663
H      -0.075043   -0.927573   -2.107571
H       2.401981   -0.966613   -0.778069
H       0.039961   -3.017639   -0.094304
H       1.542083   -1.002917    1.522312
H      -1.037561   -2.065608    2.239324
H      -1.184456    0.738123    2.262490
H      -2.155731   -1.027499   -0.224489
