21

O      -0.189440    1.484248   -0.129873
C      -0.013906    0.106015    0.165126
C      -1.327295   -0.588878   -0.177092
C      -1.336378   -2.109366   -0.083570
C      -0.325793   -2.936891   -0.848739
C      -0.247766   -2.867489    0.653466
C      -2.703046   -2.727057    0.010373
O      -3.649567   -2.137070    0.906111
C      -3.934224   -2.106823   -0.496576
H       0.608851    1.951111    0.133216
H       0.817799   -0.316654   -0.422126
H       0.225434   -0.042661    1.228767
H      -2.098594   -0.196324    0.494121
H      -1.602251   -0.280686   -1.193476
H      -0.662929   -3.861356   -1.306845
H       0.426642   -2.410583   -1.425872
H       0.568012   -2.309549    1.097161
H      -0.540234   -3.742203    1.224919
H      -2.685674   -3.818611    0.057540
H      -3.899915   -1.121250   -0.955826
H      -4.761200   -2.738375   -0.819039
