18

O      -0.130010    1.387456   -0.239110
C      -0.036601    0.032430    0.180623
C      -1.425750   -0.569726    0.083662
C      -2.000926   -0.681326   -1.354885
C      -1.307281   -2.059353   -1.473150
C      -1.509621   -2.133002    0.071468
N      -2.902810   -2.518511    0.335564
C      -3.735488   -1.857578   -0.356811
O      -3.428745   -0.889355   -1.255331
H       0.731903    1.799446   -0.127595
H       0.685153   -0.522650   -0.437717
H       0.309670   -0.041525    1.223565
H      -2.086530   -0.074883    0.800234
H      -1.847924    0.112120   -2.083112
H      -1.798619   -2.824097   -2.077161
H      -0.262208   -1.962096   -1.767832
H      -0.827490   -2.720480    0.687021
H      -4.808577   -2.016126   -0.290030
