20

C       0.351624    1.583444   -0.273198
C      -0.128460    0.144374   -0.535243
C       0.644898   -0.543179   -1.563693
C       1.291585   -1.095359   -2.417285
C       2.067755   -1.774301   -3.455382
C       2.144920   -3.284571   -3.238590
O       1.487907   -1.588586   -4.763550
C       1.536147   -0.339240   -5.267915
N       1.045899   -0.102523   -6.406754
H       1.393681    1.592070    0.057629
H       0.280060    2.188273   -1.181153
H      -0.260256    2.052846    0.502524
H      -0.083136   -0.435017    0.395721
H      -1.185269    0.155643   -0.830540
H       3.087267   -1.361554   -3.469756
H       2.734917   -3.741988   -4.036457
H       2.611881   -3.500109   -2.274729
H       1.141096   -3.714955   -3.248671
H       2.024193    0.386548   -4.604355
H       1.174794    0.880041   -6.639752
