16

O      -0.061524    1.296003    0.047088
N      -0.016038   -0.097093    0.206064
C      -1.154047   -0.619705    0.038423
C      -2.547572   -0.179584   -0.345743
C      -2.903160   -1.684196   -0.559466
C      -1.515105   -2.114593    0.030911
O      -0.799386   -2.920844   -0.881412
C      -1.571859   -2.703741    1.366941
C      -1.603674   -3.189202    2.466494
H       0.857817    1.548769    0.186341
H      -3.089316    0.299412    0.475135
H      -2.606700    0.471805   -1.220816
H      -3.774342   -2.062628   -0.026507
H      -2.953713   -1.971368   -1.610440
H       0.097153   -3.021010   -0.540379
H      -1.631215   -3.618361    3.437724
