18

C      -0.199876    1.595840    0.115919
C       0.049234    0.100611   -0.005925
C       0.787239   -0.510975   -1.220586
C       2.105144    0.165934   -1.645367
C       2.782105   -0.570842   -0.465916
N       1.549313   -1.477475   -0.297986
C       1.098725   -0.611149    0.891232
C       2.464189    0.074537    0.882145
O       3.085048    0.727674    1.670388
H       0.724795    2.174684    0.030655
H      -0.887334    1.939156   -0.664702
H      -0.649178    1.838005    1.084572
H      -0.894901   -0.441870    0.110516
H       0.167248   -0.931161   -2.014789
H       2.458746   -0.229873   -2.600011
H       2.161490    1.257068   -1.675028
H       3.770237   -1.012507   -0.606265
H       0.770283   -1.081047    1.820401
