15

C      -0.084210    1.468586    0.001244
N       0.012832    0.020458    0.124526
C      -1.165493   -0.706493    0.050214
N      -2.385336   -0.177002    0.088615
N      -3.182090   -1.250302    0.043953
N      -2.574696   -2.435592   -0.027857
C      -1.285762   -2.118009   -0.022808
N      -0.240471   -3.039989   -0.144247
H       0.918012    1.897090    0.076078
H      -0.547523    1.796640   -0.940793
H      -0.692350    1.859611    0.820827
H       0.732515   -0.385126   -0.460380
H      -4.182254   -1.164884    0.023674
H      -0.595669   -3.988715   -0.161439
H       0.433197   -2.950371    0.609258
