19

C       0.170250    1.562678   -0.112998
C      -0.004797    0.066993    0.095599
O       0.492698   -0.650506   -1.046505
C       1.182957   -1.771200   -0.648774
N       1.587556   -2.683290   -1.416113
N       1.394457   -1.777811    0.759402
C       2.213171   -0.602294    1.170875
C       0.736423   -0.559436    1.275728
C       0.027672   -0.640976    2.602854
H       1.226081    1.825863   -0.216880
H      -0.358139    1.885958   -1.013732
H      -0.243232    2.110911    0.739390
H      -1.074706   -0.164703    0.197682
H       1.311061   -2.477944   -2.376118
H       2.809965   -0.773291    2.061001
H       2.709755   -0.042312    0.383579
H      -0.132641    0.359507    3.019646
H      -0.948133   -1.126144    2.495490
H       0.617285   -1.218297    3.318638
