17

O       0.011532    1.141458    1.254928
C      -0.032116    0.168079    0.240360
C       0.964711   -0.992477    0.499430
C       0.158124   -1.994028    1.299011
O      -0.632455   -1.378813    2.340222
C      -1.270889   -1.730972    1.102488
C      -1.428368   -0.551835    0.144545
C      -2.575552    0.301405    0.409420
C      -3.540618    0.983757    0.625067
H      -0.225815    0.686485    2.074369
H       0.188273    0.694829   -0.690429
H       1.294780   -1.458889   -0.436962
H       1.848347   -0.622068    1.025693
H       0.546571   -2.979189    1.541640
H      -2.045323   -2.488785    1.176517
H      -1.524792   -0.976152   -0.865871
H      -4.383503    1.599748    0.818917
