19

C      -0.056709    1.517095   -0.101295
C       1.293589    0.846006    0.024096
C       0.022503    0.022060    0.013555
C      -0.134326   -0.636159    1.382304
C       1.093266   -1.535787    1.602900
O       2.288193   -0.749688    1.514433
C       1.980338    0.648892    1.369805
C       1.073557    1.044977    2.532300
O      -0.173130    0.342137    2.421562
H      -0.468454    2.078950    0.727345
H      -0.296346    1.919413   -1.079384
H       1.944536    0.838612   -0.843127
H      -0.219723   -0.594641   -0.846079
H      -1.060136   -1.209859    1.471660
H       1.039809   -2.002713    2.595357
H       1.132238   -2.331413    0.846808
H       2.939063    1.168381    1.435894
H       1.562004    0.778075    3.478460
H       0.870786    2.122853    2.539244
