15

C      -0.028811    1.526948    0.025981
C      -0.002237    0.022323   -0.015833
C      -0.022630   -0.695716   -1.211586
C       0.003460   -2.084182   -1.194309
F      -0.017108   -2.745298   -2.358704
C       0.050021   -2.801103   -0.008870
C       0.070861   -2.097515    1.193322
C       0.044654   -0.713017    1.169267
F       0.064962   -0.040906    2.331426
H       0.856918    1.924231    0.532752
H      -0.064775    1.946099   -0.981797
H      -0.898830    1.891853    0.581933
H      -0.058948   -0.179683   -2.164523
H       0.069324   -3.883716   -0.032237
H       0.107145   -2.610702    2.146836
