15

C       0.009840   -1.226921   -0.029728
C       0.005684   -0.023211   -0.019316
C      -0.013824    1.392713    0.012914
C       0.244865    2.282723   -1.190555
C       1.140201    2.441946   -0.000311
O       0.492118    3.237990    0.994923
C      -0.569919    2.261908    1.142250
C       2.551073    2.305452    0.014150
C       3.748141    2.187803    0.026490
H       0.019251   -2.288570   -0.041560
H       0.680787    1.764921   -2.037344
H      -0.447084    3.086682   -1.427769
H      -1.562824    2.698983    0.990305
H      -0.512643    1.774473    2.120014
H       4.805177    2.085416    0.039917
