19

C       0.033176    1.294830   -0.259069
O      -0.068356    0.103234    0.503946
C      -1.282795   -0.556792    0.332705
C      -1.459149   -1.482333   -0.845672
C      -1.274328   -2.032325    0.556143
C       1.406505    1.875636   -0.068036
C       1.584091    3.348983   -0.089860
N       1.743043    2.599174    1.165556
H      -0.148629    1.080170   -1.324256
H      -0.732151    2.022628    0.063986
H      -2.153163    0.012039    0.664623
H      -2.434127   -1.555262   -1.314876
H      -0.617774   -1.577773   -1.523119
H      -0.313365   -2.476623    0.788465
H      -2.120747   -2.485429    1.059489
H       2.214207    1.245246   -0.433585
H       2.498393    3.780103   -0.487000
H       0.699418    3.967033   -0.225521
H       0.910441    2.697379    1.742456
