18

C       0.050148    1.504659   -0.150258
C       1.286969    0.695375   -0.005194
C       1.816213    0.470302    1.416550
O       1.014096    1.260511    2.322962
C      -0.021511    0.312268    2.647181
C       0.802505   -0.852401    3.240463
C       1.283617   -0.956143    1.773179
C      -0.151269   -0.543215    1.327339
N      -0.048536    0.039732   -0.017430
H      -0.238450    2.136945    0.679635
H      -0.231453    1.866792   -1.135806
H       1.944415    0.506714   -0.851521
H       2.875239    0.680644    1.570035
H      -0.845401    0.812102    3.154152
H       1.519645   -0.582767    4.017471
H       0.203913   -1.715601    3.538372
H       1.805758   -1.813791    1.351940
H      -0.918337   -1.315624    1.376708
