17

O       0.008061    1.388797    0.046410
C      -0.030830   -0.012834    0.002517
C      -1.476695   -0.472043    0.014874
O      -2.422686    0.273551    0.055660
C      -1.665508   -2.006646   -0.029755
O      -0.684059   -2.723777   -0.070321
C      -3.057844   -2.496216   -0.019356
C      -3.349047   -3.777445   -0.796314
C      -3.321805   -3.823007    0.687875
H       0.930732    1.658950    0.038598
H       0.441951   -0.436551   -0.898756
H       0.474960   -0.492512    0.856536
H      -3.820446   -1.730858    0.018247
H      -4.301751   -3.825483   -1.310470
H      -2.505535   -4.204606   -1.326863
H      -2.459909   -4.280952    1.159975
H      -4.255066   -3.903478    1.232721
