13

C       0.072815   -1.239931   -0.067216
C       0.069826   -0.042403   -0.012193
C       0.035712    1.412700    0.073759
O       1.366162    1.901225    0.127209
C       1.440187    3.294452    0.388747
C       2.847620    3.660607    0.541750
N       3.948053    3.983507    0.671013
C      -0.705588    1.996856   -1.073511
N      -1.269829    2.500875   -1.945981
H       0.083998   -2.301493   -0.122316
H      -0.508964    1.708905    0.987026
H       1.002117    3.880998   -0.431534
H       0.901238    3.553436    1.313365
