14

C       0.076831    1.504731    0.014335
C      -0.061361    0.025165   -0.057614
C      -1.126071   -0.826636    0.005189
C      -2.580964   -0.521565    0.176999
C      -0.511444   -2.105546   -0.134645
N       0.787606   -2.034487   -0.267919
O       1.080450   -0.674761   -0.219354
H       0.716050    1.799037    0.853329
H       0.530783    1.901573   -0.899764
H      -0.900170    1.973891    0.145013
H      -3.172235   -0.887845   -0.669608
H      -2.986815   -0.989304    1.080889
H      -2.756082    0.554472    0.257912
H      -0.985764   -3.077959   -0.141328
