18

C       0.247661    1.355056   -0.339342
C       0.037787   -0.055048    0.212129
O       0.367255   -0.136181    1.601896
C      -1.364795   -0.561306   -0.013292
C      -2.220791   -0.570529   -1.106889
N      -1.965547   -0.015037   -2.387988
C      -3.390365   -1.210108   -0.634749
N      -3.281085   -1.575361    0.641826
N      -2.044635   -1.185188    0.983788
H       1.289787    1.659291   -0.209799
H      -0.022129    1.400093   -1.397087
H      -0.398773    2.066427    0.188845
H       0.751949   -0.734654   -0.272365
H      -0.007164    0.642659    2.029376
H      -1.288433   -0.561782   -2.910704
H      -2.814382    0.015785   -2.940511
H      -4.305803   -1.404431   -1.176723
H      -1.677421   -1.370265    1.902179
