17

C       0.375879    1.364480    0.200827
C       0.032546   -0.075267   -0.097042
C       0.749405   -0.845484   -1.179692
N       0.976334   -1.124708    0.214909
C       2.103845   -1.085936    0.973693
O       2.181200   -0.560191    2.070978
C       3.299254   -1.869959    0.377627
N       4.308740   -1.951750    1.270872
O       3.303861   -2.324421   -0.750070
H       1.398491    1.599347   -0.108755
H      -0.308081    2.030154   -0.334831
H       0.295063    1.570298    1.271457
H      -1.002446   -0.353417    0.096271
H       0.228678   -1.617653   -1.738645
H       1.543176   -0.342577   -1.724039
H       4.191730   -1.506200    2.167001
H       5.165779   -2.413705    1.020357
