16

O       0.150887    1.141015    0.854523
C      -0.027056    0.159557   -0.187818
C      -1.401551   -0.423542   -0.153447
C      -2.101606   -0.656827    1.016140
O      -1.754257   -0.420455    2.299542
N      -3.317803   -1.173662    0.719309
C      -3.444337   -1.299231   -0.665792
C      -2.277355   -0.835917   -1.212647
O      -2.034947   -0.759074   -2.558136
H      -0.493961    1.838856    0.686876
H       0.192133    0.599952   -1.172852
H       0.759681   -0.578264    0.013462
H      -0.953353    0.129031    2.251114
H      -4.026204   -1.382011    1.400148
H      -4.330483   -1.702768   -1.121810
H      -1.085120   -0.783105   -2.703528
