17

C      -0.090776    1.568966    0.012186
C       0.025424    0.048000    0.003335
N      -1.293042   -0.560353    0.010822
C      -1.549798   -1.886680    0.006673
C      -0.536217   -2.878744   -0.004796
N      -0.826644   -4.164983   -0.008355
N      -2.108381   -4.553004   -0.001130
C      -3.025713   -3.587064    0.009217
N      -2.831875   -2.270093    0.013782
H       0.902589    2.023583    0.006631
H      -0.632279    1.925992   -0.869686
H      -0.618184    1.916716    0.906211
H       0.584451   -0.276528   -0.885197
H       0.598414   -0.285680    0.879463
H      -2.108405    0.033925    0.018231
H       0.518844   -2.625701   -0.011153
H      -4.058496   -3.927296    0.015268
