12

C      -0.097765    1.449173    0.045620
N       0.010431    0.003738   -0.000706
C       0.053230   -0.714321    1.252649
C       0.067287   -0.640672   -1.200608
O       0.036364   -0.110065   -2.291092
H       0.756507    1.887471    0.576474
H      -0.116486    1.816321   -0.980492
H      -1.016411    1.755215    0.561514
H      -0.854536   -0.536577    1.843902
H       0.132977   -1.786963    1.058514
H       0.916373   -0.407378    1.857613
H       0.147622   -1.738013   -1.068051
