20

C      -0.044422    1.543565    0.105211
C       0.103602    0.027704   -0.058623
C       0.752992   -0.626949    1.154550
O      -0.023383   -0.398593    2.364047
C      -0.204494   -1.735230    2.860609
C       1.195430   -2.376358    2.690483
C       0.826786   -2.164846    1.186520
C      -0.633615   -2.533140    1.606687
H       0.931377    2.024865    0.235468
H      -0.523300    1.991324   -0.770705
H      -0.650464    1.773620    0.985469
H      -0.878301   -0.421668   -0.242349
H       0.723976   -0.196754   -0.936666
H       1.752282   -0.189151    1.297753
H      -0.762501   -1.707337    3.795273
H       2.048422   -1.827153    3.096984
H       1.232540   -3.428510    2.977777
H       1.354004   -2.660257    0.371918
H      -0.752945   -3.601539    1.794338
H      -1.471678   -2.145806    1.024783
