21

C      -0.089883    1.568986   -0.009573
C       0.074098    0.044061   -0.017828
C       0.755843   -0.470503   -1.265271
C       2.189246   -0.118968   -1.730125
C       1.670502   -1.084689   -2.805098
C       0.903797   -1.966196   -1.761040
C      -0.376844   -1.908332   -2.621119
O      -1.650376   -2.123532   -2.069692
C       0.220648   -0.491985   -2.758106
H       0.880873    2.068593   -0.088602
H      -0.705889    1.904644   -0.850257
H      -0.566830    1.909250    0.914317
H       0.664700   -0.266827    0.854479
H      -0.909817   -0.426494    0.113874
H       2.370151    0.914789   -2.043323
H       3.009564   -0.476655   -1.097858
H       2.169434   -1.457057   -3.700180
H       1.325336   -2.794521   -1.187634
H      -0.345989   -2.512805   -3.533678
H      -1.734051   -1.597759   -1.268867
H      -0.138657    0.365939   -3.330042
