16

O      -0.192438    1.507077    0.364806
C       0.022423    0.145287    0.133624
C       0.326596   -0.812045    1.336885
C      -0.828334   -1.740500    0.865713
C      -2.169863   -1.393448    1.547439
O      -2.387726   -0.292407    0.643215
C      -1.252688   -0.661206   -0.175840
C      -3.214344   -2.419530    1.431662
N      -4.017551   -3.245562    1.342722
H       0.660820    1.942061    0.457813
H       0.749746   -0.028401   -0.674462
H       1.319875   -1.264353    1.331656
H       0.148956   -0.351374    2.312088
H      -0.614232   -2.781317    0.638358
H      -2.108336   -1.065900    2.592140
H      -1.540821   -0.830987   -1.215172
