22

C       0.128874    1.608485    0.051406
C      -0.154194    0.108204   -0.025975
N       0.507659   -0.495059   -1.167103
C      -0.018940   -0.230108   -2.519597
C       0.271769   -1.699145   -2.849866
O       0.299926   -2.360124   -3.844467
C       0.532342   -1.983643   -1.355238
C       1.879110   -2.617370   -1.019412
C      -0.635365   -2.766404   -0.734471
H       1.205016    1.793551    0.112205
H      -0.253666    2.128618   -0.833231
H      -0.354735    2.047372    0.929545
H       0.223183   -0.380113    0.880180
H      -1.249428   -0.053368   -0.041011
H      -1.101013   -0.011519   -2.564769
H       0.513292    0.529057   -3.102766
H       2.695972   -2.045425   -1.465825
H       2.032159   -2.641824    0.065321
H       1.922594   -3.645203   -1.393184
H      -0.627733   -3.794931   -1.106529
H      -0.545057   -2.799909    0.356147
H      -1.606130   -2.326995   -0.982829
