15

C       0.060333    1.436801    0.089525
N      -0.047558    0.010516   -0.117900
C      -1.230865   -0.674884   -0.041496
C      -2.490058   -0.041980   -0.021829
N      -3.621044   -0.744056    0.016718
C      -3.507710   -2.051086    0.040448
F      -4.632116   -2.765521    0.078341
C      -2.278114   -2.703088    0.034140
N      -1.143450   -2.015719   -0.004373
H       1.112450    1.721111    0.031491
H      -0.474889    1.990599   -0.690862
H      -0.331500    1.760385    1.065431
H       0.764211   -0.560432    0.054472
H      -2.585035    1.038489   -0.038431
H      -2.220025   -3.787243    0.064434
