20

O       0.091240    1.373634    0.276493
C      -0.000878   -0.035017    0.110685
C      -1.420357   -0.483482   -0.142287
C      -2.296601   -0.916995    0.984354
N      -1.727363   -1.915236    0.057619
C      -2.641824   -2.310082   -1.027197
C      -3.197322   -1.034016   -1.706836
O      -4.431985   -0.587653   -1.143080
C      -2.124160    0.023412   -1.397228
H      -0.470052    1.612877    1.021766
H       0.628980   -0.270327   -0.755029
H       0.406456   -0.580902    0.974181
H      -1.888566   -0.971812    1.991310
H      -3.356507   -0.695000    0.919150
H      -2.061920   -2.896637   -1.749616
H      -3.442214   -2.953250   -0.643907
H      -3.319288   -1.181306   -2.788699
H      -5.086026   -1.281140   -1.277511
H      -2.576581    1.010338   -1.281162
H      -1.400669    0.084442   -2.217527
