18

C      -0.306830    1.484228    0.099569
C       0.074211    0.004464   -0.044518
C       0.765814   -0.298438   -1.376698
O       1.966507    0.432931   -1.559806
C       2.975111    0.085172   -0.669611
O       2.836530    0.655198    0.629233
C       2.036898    0.058937    1.564887
O       2.362784    0.035837    2.723245
N       0.867242   -0.499039    1.089789
H       0.583604    2.115576    0.067478
H      -0.972115    1.789263   -0.714444
H      -0.823551    1.656862    1.047621
H      -0.839171   -0.601692   -0.038978
H       0.968520   -1.377851   -1.442121
H       0.111491   -0.013830   -2.205258
H       3.058779   -1.007558   -0.574484
H       3.898991    0.513317   -1.059770
H       0.322941   -0.855274    1.862314
