17

C       0.030747    1.564163   -0.016637
C       0.044186    0.045871    0.002675
O      -1.253318   -0.503906    0.159139
C       0.745805   -0.723228   -1.112131
C       2.230644   -0.816671   -0.648799
O       2.351917   -0.106553    0.585083
C       1.066689   -0.665988    0.955117
C       1.218494   -1.798561   -0.162822
O       1.043757   -3.148841   -0.225927
H       1.048112    1.954462   -0.083233
H      -0.552958    1.929610   -0.867177
H      -0.425065    1.959296    0.900566
H      -1.646179   -0.104001    0.943105
H       0.458131   -0.817730   -2.151504
H       3.075503   -0.869709   -1.322360
H       0.903729   -0.751531    2.029081
H       1.765213   -3.574632    0.252336
