15

N      -0.033326   -1.114726    0.254223
C       0.009061    0.030719    0.105774
C       0.028080    1.457232   -0.114461
C      -0.984455    2.109062   -1.057732
N      -0.352239    3.312733   -1.634305
C      -0.031075    4.407468   -0.712423
C       1.021260    3.425985   -1.092172
C       1.257962    2.285427   -0.136136
O       0.395259    2.272509    1.005706
H      -1.218847    1.415224   -1.871400
H      -1.915969    2.358162   -0.540902
H      -0.037732    5.390750   -1.173818
H      -0.397455    4.363015    0.307960
H       1.818256    3.669216   -1.787912
H       2.250062    1.872170    0.016254
