21

C       0.007670    1.591828   -0.008036
C       0.001164    0.061613    0.010612
C      -1.409058   -0.533243   -0.003802
O      -2.136477   -0.151840   -1.170881
C      -1.396649   -2.069543    0.154838
O      -0.692844   -2.461601    1.322471
C      -2.827950   -2.642943    0.118833
C      -2.870483   -4.098243    0.136896
C      -2.897608   -5.299663    0.143094
H       1.028444    1.981685   -0.060511
H      -0.551434    1.974594   -0.866391
H      -0.458201    1.997957    0.896705
H       0.547430   -0.327904   -0.862400
H       0.526487   -0.321724    0.890095
H      -1.987348   -0.109920    0.831318
H      -1.593023   -0.370865   -1.936806
H      -0.825746   -2.501051   -0.678244
H      -1.253225   -2.280798    2.085498
H      -3.386463   -2.241746    0.978494
H      -3.330655   -2.252048   -0.771654
H      -2.923373   -6.360893    0.151505
