20

C      -0.284431    1.524838    0.067639
C      -0.015496    0.050910   -0.007314
C       0.139779   -0.683723   -1.175553
N       0.310779   -1.980574   -0.778140
C       0.716698   -3.373766   -1.010891
C       0.671921   -3.554036    0.556821
C       0.307126   -2.077024    0.579924
C       0.105476   -0.831185    1.129952
C       0.018438   -0.437474    2.572777
H       0.479274    2.050137    0.654969
H      -0.298378    1.974566   -0.929546
H      -1.250151    1.744045    0.540883
H       0.100804   -0.375506   -2.208115
H      -0.006119   -3.961794   -1.584561
H       1.710668   -3.478578   -1.456669
H      -0.090659   -4.253018    0.912156
H       1.632880   -3.823193    1.004073
H       0.763029    0.324418    2.835554
H      -0.963257   -0.018314    2.828180
H       0.185410   -1.298165    3.227045
