14

O       0.190268    1.418518   -0.174832
C       0.061185    0.016436   -0.042154
C       0.601623   -0.558687    1.275240
C      -0.333670   -1.290119    1.888263
N      -1.505259   -1.266389    1.099140
N      -2.736114   -1.780533    1.222427
N      -3.403590   -1.364980    0.174865
C      -2.593529   -0.587678   -0.613698
C      -1.357019   -0.516537   -0.022723
H      -0.320344    1.829225    0.532688
H       0.622193   -0.398344   -0.888306
H       1.606681   -0.375982    1.626106
H      -0.323881   -1.844509    2.813969
H      -2.959471   -0.147244   -1.526181
