23

C      -0.113920    1.602768    0.056547
C      -0.040332    0.074988   -0.005278
C       0.746392   -0.491878   -1.209910
C       2.252630   -0.106981   -1.207893
C       2.937545   -1.148588   -2.118299
C       2.022512   -2.408617   -2.087053
C       0.838943   -2.043219   -1.166867
C       0.121810   -0.072597   -2.468816
C      -0.394010    0.263401   -3.502784
H       0.880388    2.049832    0.156418
H      -0.575696    2.009697   -0.847785
H      -0.709687    1.925560    0.915844
H       0.432406   -0.310190    0.907134
H      -1.055629   -0.338383   -0.029634
H       2.427820    0.921083   -1.531670
H       2.618859   -0.197143   -0.177790
H       3.014840   -0.763756   -3.138639
H       3.955649   -1.363724   -1.782902
H       1.663666   -2.640449   -3.093266
H       2.548856   -3.296308   -1.726063
H       1.053053   -2.336716   -0.132105
H      -0.098711   -2.523104   -1.457634
H      -0.848903    0.561165   -4.414909
