21

C      -0.007916    1.557505   -0.000301
C       0.107333    0.049976   -0.081810
C       0.701235   -0.740263   -1.212133
C      -0.029971   -1.855242   -1.901909
C       1.926508   -0.021188   -1.797596
C       2.606083   -0.018443   -0.394834
C       1.379855   -0.739095    0.195911
C       1.435726   -1.772844    1.170625
C       1.499163   -2.655693    1.988445
H       0.863986    2.072013   -0.410838
H      -0.886491    1.905167   -0.555239
H      -0.123207    1.880162    1.039899
H      -0.754342   -0.462006    0.342937
H      -0.671376   -1.470801   -2.704783
H       0.667708   -2.572013   -2.349430
H      -0.666666   -2.402028   -1.199296
H       2.466156   -0.647830   -2.511630
H       1.742117    0.950423   -2.266904
H       3.498613   -0.645246   -0.364966
H       2.849639    0.953357    0.044996
H       1.551670   -3.428385    2.714201
