19

C      -0.211643    1.388280   -0.009239
N       0.206780   -0.004148    0.061324
C       0.865421   -0.516119   -1.094373
C       1.725354   -1.743306   -0.986155
N       1.890194   -2.329253    0.315929
C       0.333913   -1.865333   -1.646647
N      -0.789112   -2.432766   -0.967701
C       0.349634   -2.034446   -3.080625
N       0.400850   -2.157884   -4.230582
H       0.613582    2.095686   -0.194581
H      -0.947029    1.513273   -0.810192
H      -0.695198    1.665532    0.931160
H       0.714902   -0.227007    0.907217
H       1.158411    0.218481   -1.840543
H       2.557163   -1.790923   -1.689861
H       2.023900   -3.333421    0.242351
H       2.726883   -1.960227    0.758194
H      -0.560247   -3.324319   -0.542276
H      -1.048324   -1.789540   -0.220096
