18

C      -0.056864    1.357144    0.085345
O       0.022006   -0.072610   -0.028862
C       0.647541   -0.527091   -1.129087
O       1.119981    0.178369   -1.978659
C       0.662954   -2.067069   -1.129141
C       1.427208   -2.584449    0.115258
C      -0.789440   -2.606363   -1.137253
C       1.353568   -2.527523   -2.343317
N       1.883569   -2.959701   -3.273687
H       0.944152    1.793737    0.112132
H      -0.603514    1.778157   -0.761580
H      -0.585566    1.549307    1.018454
H       0.919854   -2.247936    1.020987
H       1.454639   -3.676746    0.104952
H       2.455603   -2.214898    0.126529
H      -1.335113   -2.252420   -2.015464
H      -0.778408   -3.698824   -1.156741
H      -1.308557   -2.269902   -0.238192
