16

C       0.079472    1.591490    0.057035
C       0.093876    0.070753    0.003211
C       0.800501   -0.675087   -1.142076
C       1.275429   -1.755806   -0.232904
C       2.300443   -0.751017   -0.809333
C       2.454881   -0.211148    0.577235
O       3.376485    0.219711    1.212340
C       1.047921   -0.726517    0.948772
H       1.086070    2.008616   -0.046869
H      -0.540894    2.003443   -0.746097
H      -0.331323    1.944347    1.009058
H      -0.921087   -0.329672    0.100282
H       0.489476   -0.762192   -2.176305
H       1.304573   -2.832943   -0.277437
H       3.050985   -0.925166   -1.567757
H       0.791616   -0.948342    1.981217
