23

C      -0.070334    1.548955   -0.021349
C      -0.016928    0.017340    0.046842
C       0.787467   -0.451271    1.267873
C      -1.431813   -0.588746    0.036042
O      -2.195780   -0.101365   -1.090626
C      -1.446493   -2.106409    0.049501
C      -1.918922   -2.877365    1.270474
C      -2.793881   -2.788864    0.054367
O      -3.939075   -1.995617    0.125659
H       0.936751    1.970197   -0.101957
H      -0.659743    1.886025   -0.876382
H      -0.531168    1.960595    0.884605
H       0.494187   -0.349772   -0.858186
H       0.304242   -0.130862    2.198395
H       0.888028   -1.539102    1.302604
H       1.792798   -0.018566    1.253580
H      -1.986930   -0.211044    0.901385
H      -1.788833   -0.455408   -1.889970
H      -0.666043   -2.572232   -0.549749
H      -1.438586   -3.820896    1.504974
H      -2.233247   -2.296844    2.131094
H      -2.902676   -3.688824   -0.551102
H      -3.803625   -1.268538   -0.499516
