17

O      -0.159866   -0.008899    0.099872
C      -0.032657    1.177522    0.025979
O      -1.115569    2.018051   -0.047185
C      -0.724611    3.416229   -0.028817
C       0.707892    3.366128    0.389052
C       1.529161    4.011338    1.209684
C       2.794609    3.200836    1.436678
C       2.392205    1.766863    0.971877
C       1.236766    2.019970   -0.017891
H      -0.874742    3.825879   -1.035927
H      -1.381821    3.943800    0.666857
H       1.341350    4.965562    1.688714
H       3.632600    3.593249    0.843565
H       3.119699    3.225413    2.482114
H       3.221649    1.212822    0.528677
H       2.025665    1.186104    1.823627
H       1.586442    2.010660   -1.062047
