17

C       0.040480    1.568885   -0.049598
C       0.035085    0.078435   -0.006639
C       0.542874   -1.019657   -0.938065
C       1.358260   -1.671009    0.171621
C       0.340980   -0.998500    1.139090
O      -0.913050   -1.675771    0.866775
C      -0.905562   -1.008697   -0.395104
C       0.619749   -0.746428    2.580556
O       1.607496   -0.172421    2.968042
H       1.037837    1.969571    0.160307
H      -0.257192    1.918700   -1.044094
H      -0.656064    1.996087    0.679756
H       0.769045   -0.944585   -1.994404
H       1.414303   -2.762141    0.230600
H       2.346031   -1.218319    0.276752
H      -1.802679   -1.018466   -1.000275
H      -0.166931   -1.117213    3.273014
