20

C      -0.127520    1.590514   -0.000239
C       0.004766    0.082669   -0.062992
C       0.712778   -0.639520   -1.231459
C       1.165921   -1.704464   -0.180535
C       2.659463   -1.387396   -0.403917
C       2.348927   -0.116769    0.333909
N       1.020803   -0.571403    0.857077
C       2.194148   -0.167388   -1.190505
C       2.945956    0.687089   -2.163787
H       0.827356    2.084674   -0.202768
H      -0.855906    1.946208   -0.736815
H      -0.468767    1.904801    0.991638
H      -0.958791   -0.397860    0.147201
H       0.252063   -0.859738   -2.195396
H       0.688844   -2.661641    0.020819
H       3.556303   -1.989802   -0.454645
H       2.996034    0.570984    0.863700
H       2.997731    0.224509   -3.156163
H       2.477192    1.671378   -2.280948
H       3.975342    0.850097   -1.824996
