19

C      -0.441159    1.351777    0.044042
N      -0.046021   -0.036536   -0.024864
C       0.482053   -0.705988   -1.076952
C       0.693130   -2.003456   -0.663764
C       0.253327   -2.027339    0.682987
N      -0.193340   -0.827005    1.059577
C       0.236396   -3.149321    1.642114
C      -0.046919   -4.563918    1.178245
C       1.334837   -4.193298    1.636145
H      -0.248478    1.823149   -0.921253
H      -1.506263    1.433576    0.278524
H       0.128687    1.872189    0.819019
H       0.663483   -0.215993   -2.020993
H       1.103516   -2.809978   -1.249774
H      -0.160137   -2.868442    2.611380
H      -0.654179   -5.194662    1.818121
H      -0.211852   -4.714378    0.116784
H       2.112587   -4.090781    0.887050
H       1.682851   -4.567886    2.592497
