16

C       0.341769    1.486780   -0.571702
C       0.021186    0.099214   -0.086600
O       1.096203   -0.808557    0.078969
C       0.388057   -0.433822    1.258909
C       1.124119    0.406949    2.246935
O       2.129728    1.038269    2.005652
C       0.490503    0.446425    3.656955
N       1.192872    1.224151    4.506575
O      -0.529722   -0.164780    3.916859
H       1.221375    1.887224   -0.066340
H       0.541479    1.459372   -1.648009
H      -0.511205    2.153202   -0.406440
H      -0.874590   -0.352556   -0.518417
H      -0.252185   -1.193842    1.697028
H       2.026558    1.679460    4.171150
H       0.888064    1.334075    5.458638
