18

C      -0.164036    1.556550   -0.018072
C       0.001602    0.028781    0.004145
C       1.200964   -0.453849   -0.885635
C       2.099903   -0.491009    0.388519
C       0.805340   -0.465563    1.258233
C       3.004687   -1.615279    0.549344
N       3.712428   -2.521187    0.674998
C      -1.267904   -0.635840   -0.233752
C      -2.317603   -1.188716   -0.430525
H       0.793350    2.056954    0.161331
H      -0.546572    1.887509   -0.987691
H      -0.868081    1.877987    0.754604
H       1.030559   -1.452984   -1.287371
H       1.515364    0.214479   -1.689349
H       2.670313    0.434789    0.498840
H       0.810874    0.193623    2.128237
H       0.504724   -1.468552    1.562113
H      -3.242978   -1.680154   -0.604186
