17

C       0.014152    1.506477   -0.032903
C      -0.089152    0.024559    0.010484
C      -1.120233   -0.849892   -0.141523
C      -0.577871   -2.172758    0.023612
C      -1.303004   -3.481753   -0.087838
C      -1.479305   -3.906654   -1.540022
O      -1.248548   -5.009454   -1.959962
C       0.749361   -1.989503    0.257936
O       1.061286   -0.665520    0.257384
H       0.704292    1.837770   -0.817002
H      -0.967173    1.941098   -0.234691
H       0.380390    1.911298    0.917255
H      -2.149972   -0.590345   -0.336321
H      -0.786190   -4.287260    0.439987
H      -2.308813   -3.390382    0.346469
H      -1.845874   -3.095985   -2.210506
H       1.566083   -2.667127    0.446115
