18

C      -0.166162    1.476663    0.308290
C       0.007592   -0.012523    0.041660
C       1.365961   -0.498006   -0.434564
C       0.903021   -0.801691    0.967271
C      -1.196357   -0.696846   -0.488855
C      -2.116549   -1.565713    0.055385
N      -3.064256   -1.865378   -0.876884
N      -2.791807   -1.229073   -1.978760
N      -1.668102   -0.520495   -1.751941
H       0.759637    1.909620    0.698903
H      -0.429032    2.021262   -0.605536
H      -0.960918    1.653050    1.040236
H       1.397621   -1.317306   -1.143886
H       2.142557    0.246789   -0.571536
H       1.365429   -0.267122    1.789794
H       0.628207   -1.824718    1.195763
H      -2.147984   -1.981879    1.049182
H      -1.276408    0.034598   -2.496312
