11

O      -0.072279   -0.012305    0.000118
C      -0.013929    1.187200    0.006628
C       1.289601    1.961504   -0.001166
N       2.370757    1.262498   -0.018102
O       3.560346    1.977886   -0.024978
C       3.519681    3.325619   -0.013564
N       2.496280    4.084561    0.003162
C       1.244758    3.450478    0.010847
O       0.199506    4.056623    0.026108
H      -0.902618    1.841455    0.018850
H       4.534625    3.717954   -0.020848
