17

C       0.051828    1.457901    0.039648
C       0.033719   -0.031671   -0.021697
N       0.052404   -0.751994   -1.137625
C       0.024664   -2.062449   -0.748706
C       0.035148   -3.168938   -1.750985
C      -0.011747   -2.142719    0.637064
N      -0.004810   -0.826856    1.070425
C      -0.050590   -3.226489    1.586447
O      -0.079230   -3.060462    2.794231
H       0.923204    1.826923    0.591676
H       0.089994    1.850966   -0.976458
H      -0.843510    1.850681    0.534044
H       0.932541   -3.111839   -2.375810
H       0.009411   -4.151082   -1.273676
H      -0.827329   -3.087778   -2.420758
H      -0.026484   -0.568726    2.044725
H      -0.052984   -4.242935    1.142910
