20

C       0.079433    1.199362    0.359089
O      -0.141616   -0.155402    0.042869
C      -1.509005   -0.561610   -0.177445
C      -2.004722   -0.027484   -1.524871
C      -1.486904   -2.108612   -0.104204
C      -1.894756   -2.476582    1.341928
C      -2.591903   -1.226562    1.819980
C      -2.403322   -0.196715    0.997694
H       1.160614    1.321681    0.467220
H      -0.264446    1.886143   -0.428560
H      -0.398316    1.491669    1.305097
H      -1.349374   -0.371122   -2.331269
H      -3.021021   -0.379406   -1.725759
H      -2.025241    1.066545   -1.545742
H      -2.219150   -2.515628   -0.807904
H      -0.501155   -2.481251   -0.389251
H      -2.541098   -3.360502    1.382462
H      -1.025461   -2.700599    1.974007
H      -3.161917   -1.191648    2.742954
H      -2.802626    0.801409    1.140304
