18

C       0.171530    0.422629   -0.802933
C       0.050501   -0.089021    0.628776
O       0.224160    0.943863    1.592035
C      -1.280225   -0.800926    0.886334
O      -1.379867   -1.910163    0.017216
C      -2.577016   -2.640016    0.199676
C      -2.620732   -3.767363   -0.722201
C      -2.682193   -4.703275   -1.471835
H       1.144114    0.896958   -0.958445
H       0.053902   -0.399206   -1.513228
H      -0.611445    1.163178   -1.014893
H       0.856099   -0.804741    0.828019
H      -0.358066    1.672037    1.348566
H      -1.321884   -1.117533    1.940222
H      -2.117999   -0.098390    0.718293
H      -2.650256   -3.005868    1.238130
H      -3.453602   -1.990317    0.032871
H      -2.729920   -5.529964   -2.136719
