15

N       0.068527    1.356935    0.154062
C      -0.026085    0.004494   -0.010370
C      -1.192896   -0.684031   -0.070473
C      -1.202200   -2.134998   -0.058772
O      -2.212404   -2.816295   -0.013637
C       0.176403   -2.804815   -0.057608
O       1.195777   -1.999689   -0.629252
C       1.293163   -0.738669   -0.025503
H       0.906620    1.824404   -0.152533
H      -0.774625    1.904658    0.080288
H      -2.154111   -0.178379   -0.072093
H       0.430169   -3.079183    0.981837
H       0.124619   -3.722268   -0.646440
H       2.037030   -0.173129   -0.600064
H       1.669349   -0.813223    1.011915
