18

O      -0.016262    1.308018   -0.218090
C      -0.079109   -0.115863   -0.162805
C      -1.538736   -0.484026    0.113825
O      -1.937161    0.138146    1.326327
C      -2.443500   -0.094102   -1.099305
C      -2.702401   -1.406875   -1.792026
C      -2.299920   -2.446950   -1.063159
C      -1.694259   -2.019962    0.249484
H       0.905889    1.577583   -0.206051
H       0.255261   -0.571184   -1.106655
H       0.545019   -0.502048    0.655482
H      -1.597764    1.041341    1.280626
H      -3.373361    0.350272   -0.722147
H      -1.971208    0.657579   -1.740552
H      -3.189706   -1.472612   -2.758981
H      -2.409383   -3.489226   -1.341989
H      -0.739631   -2.516079    0.466850
H      -2.356126   -2.237461    1.097239
