19

O       0.180204    1.378924   -0.069846
C       0.036255   -0.000217   -0.009179
C      -0.418747   -0.702497    1.253480
C      -0.844546    0.136850    2.451837
C      -2.369919    0.196526    2.662014
C      -3.124023    0.528593    1.394692
O      -2.521921    1.484014    0.499055
C      -2.595683    0.094716    0.091239
C      -1.316154   -0.679967    0.014558
H      -0.675502    1.771771    0.156335
H       0.812861   -0.488168   -0.590580
H       0.054743   -1.651784    1.482984
H      -0.378608   -0.260820    3.357350
H      -0.461506    1.155934    2.331148
H      -2.748976   -0.770082    3.021292
H      -2.609770    0.933176    3.437604
H      -4.200540    0.661685    1.497342
H      -3.295738   -0.068065   -0.726473
H      -1.410607   -1.598276   -0.557249
