17

C       0.089304    1.514812    0.028614
C      -0.077543    0.025934   -0.031256
C      -0.941382   -0.764863    0.863609
N       0.521445   -0.918965    1.022358
C       1.042307   -1.793609   -0.116290
C       0.483201   -0.844077   -1.172142
O      -0.400556   -1.894469   -1.677113
C       0.107112   -2.806777   -0.751927
N      -0.154705   -4.019810   -0.583401
H       1.097242    1.816922   -0.275838
H      -0.628187    2.010781   -0.635502
H      -0.078446    1.878810    1.045884
H      -1.379974   -0.234097    1.703365
H      -1.542365   -1.587272    0.489883
H       2.087432   -2.056597    0.022912
H       1.048419   -0.359993   -1.966397
H      -0.858439   -4.348120   -1.247871
