20

C      -0.187660    1.555319   -0.100484
C      -0.031874    0.033348   -0.045457
O       0.672747   -0.434546   -1.189397
C       0.682626   -0.487642    1.227127
C       0.655710   -2.024828    1.248058
O       2.034177   -0.031776    1.107369
C       0.102670    0.088972    2.529229
O       0.939808   -0.235494    3.639341
H       0.772218    2.045605    0.087528
H      -0.534892    1.837628   -1.097424
H      -0.915920    1.924197    0.628946
H      -1.022003   -0.435076   -0.101814
H       1.597852   -0.200124   -1.039996
H       1.042265   -2.408152    0.302866
H       1.282255   -2.417490    2.056038
H      -0.363833   -2.403495    1.382937
H       2.405762   -0.066623    1.998498
H       0.099715    1.179731    2.486843
H      -0.929083   -0.254630    2.687745
H       0.811637   -1.165701    3.850480
