17

C       0.052246    1.371582    0.059975
O      -0.055417   -0.053252    0.000149
C      -1.306014   -0.541236   -0.029716
N      -2.347929    0.179615   -0.048101
C      -3.615213   -0.543851    0.010467
C      -3.585418   -1.890795   -0.727267
C      -2.371363   -2.718271   -0.345288
O      -2.311972   -3.925687   -0.347103
N      -1.272127   -1.934317   -0.024659
H       1.121308    1.581170    0.103839
H      -0.394333    1.828871   -0.826479
H      -0.455117    1.759946    0.946641
H      -3.883649   -0.706255    1.065333
H      -4.398411    0.091807   -0.411978
H      -4.481135   -2.487247   -0.543184
H      -3.522172   -1.718941   -1.810247
H      -0.387477   -2.401509    0.115285
