17

O      -0.187399    0.321340    0.998294
C      -0.120282    1.261270    0.240647
C      -1.336832    1.842808   -0.482846
C      -1.239180    3.366436   -0.753133
C      -0.198777    4.015047    0.180735
C       1.132522    3.349212   -0.098051
C       1.887091    2.561127    0.930233
N       1.087354    1.890176   -0.082229
H      -1.472110    1.289441   -1.419062
H      -2.196778    1.598953    0.145769
H      -0.938857    3.548796   -1.791088
H      -2.220622    3.833161   -0.626599
H      -0.137228    5.094886    0.017657
H      -0.490163    3.858620    1.226947
H       1.698470    3.763657   -0.931630
H       2.962802    2.442990    0.837627
H       1.506998    2.542561    1.948481
