18

O       0.521962    1.086725    0.543274
C       0.088162   -0.196670    0.086062
C      -1.427485   -0.272376    0.062939
C      -2.273637    0.096109   -0.901356
C      -1.978961    0.657133   -2.272965
C      -0.721386    0.147532   -2.968453
O       0.483072    0.406355   -2.231977
C       0.752442   -0.514938   -1.233648
N       1.545522   -1.485581   -1.373368
H       0.294445    1.715597   -0.152111
H       0.474842   -0.911720    0.813696
H      -1.859416   -0.599722    1.005356
H      -3.334626    0.039946   -0.665037
H      -2.825870    0.441109   -2.936274
H      -1.929919    1.754367   -2.208877
H      -0.799237   -0.929508   -3.165390
H      -0.593240    0.661131   -3.925316
H       1.910273   -1.505176   -2.329470
