23

C       0.093653    1.539568    0.322785
C      -0.038068    0.014832    0.351164
C      -1.338286   -0.489133   -0.291351
C      -1.453238   -2.000366   -0.265835
C      -2.034860   -2.723020    0.929033
C      -2.761917   -2.747164   -0.391763
C      -4.098214   -2.035119   -0.565128
C      -5.232252   -2.872073   -0.182548
C      -6.154196   -3.577726    0.128668
H       1.029867    1.868746    0.784286
H       0.077462    1.920110   -0.704733
H      -0.730124    2.018740    0.863829
H       0.817653   -0.438039   -0.166725
H       0.010634   -0.344107    1.386871
H      -2.189228   -0.033729    0.230014
H      -1.389392   -0.129898   -1.329021
H      -0.610907   -2.498578   -0.742072
H      -1.562505   -3.631318    1.286321
H      -2.463546   -2.109388    1.716632
H      -2.712689   -3.683074   -0.941134
H      -4.117372   -1.114076    0.028680
H      -4.218771   -1.721849   -1.611112
H      -6.973108   -4.193531    0.406378
