16

O      -0.274851    1.592691   -1.241023
N      -0.167418    0.197060   -1.212780
C      -0.907047   -0.321164   -0.307573
C      -0.870141   -1.819708   -0.194965
C      -0.122006   -2.341080    1.031418
O      -0.345492   -3.402663    1.546731
C      -1.783531    0.521902    0.606831
C      -2.333745   -0.195205    1.747599
C      -2.778554   -0.792456    2.690527
H       0.336019    1.832374   -1.946085
H      -1.873442   -2.255387   -0.187448
H      -0.334056   -2.206752   -1.070226
H       0.697841   -1.679131    1.390858
H      -1.195860    1.384982    0.941331
H      -2.592931    0.953909    0.001697
H      -3.166870   -1.323531    3.524372
