22

C      -0.019167    1.402063   -0.071429
O      -0.037052    0.007305    0.117488
C      -1.322936   -0.592460    0.025744
C      -1.800103   -0.709391   -1.422105
C      -1.200388   -1.965398    0.710071
C      -0.723222   -1.848467    2.157920
O      -2.486272   -2.565163    0.618323
C      -2.504160   -3.959918    0.807261
H       1.002049    1.739696    0.123822
H      -0.290999    1.695471   -1.095656
H      -0.700714    1.915315    0.625215
H      -2.048812    0.005306    0.603603
H      -2.754086   -1.238273   -1.456802
H      -1.935322    0.274901   -1.879139
H      -1.066252   -1.265001   -2.015526
H      -0.474510   -2.563164    0.132213
H      -1.457075   -1.292861    2.751342
H      -0.587997   -2.832758    2.614953
H       0.230759   -1.319580    2.192618
H      -3.525372   -4.297554    0.611989
H      -1.822596   -4.473180    0.110642
H      -2.232355   -4.253311    1.831500
