21

C      -0.285721    1.505035   -0.143494
C       0.017263   -0.000379    0.016393
C       0.861415   -0.225983    1.281471
C      -1.312467   -0.775876    0.134859
C       0.758816   -0.483693   -1.208748
C       2.002420   -1.055748   -1.311324
N       2.190341   -1.304130   -2.655606
C       1.070002   -0.879355   -3.301379
N       0.190945   -0.381811   -2.465759
H       0.640151    2.087453   -0.197114
H      -0.851011    1.685225   -1.061136
H      -0.871403    1.873328    0.706225
H       0.320848    0.125295    2.166291
H       1.085785   -1.288017    1.428364
H       1.809640    0.320162    1.232157
H      -1.905624   -0.657660   -0.775236
H      -1.130299   -1.845562    0.282891
H      -1.898856   -0.409119    0.984754
H       2.753723   -1.304690   -0.581817
H       3.003783   -1.721160   -3.075201
H       0.955738   -0.958793   -4.372495
