16

O      -0.217228    1.400298   -0.004236
N      -0.014650    0.000230   -0.079101
C      -1.117748   -0.618048   -0.055965
C      -2.594237   -0.290304    0.140652
C      -3.260960   -0.843246   -1.157723
C      -2.834539   -2.222089   -0.652693
C      -2.726436   -1.743666    0.770516
C      -1.440528   -2.068249    0.024488
O      -0.618060   -3.137733    0.263636
H       0.687656    1.728907    0.005793
H      -2.893321    0.646443    0.598811
H      -4.348244   -0.726184   -1.135268
H      -2.865295   -0.481436   -2.112652
H      -3.133037   -3.206066   -0.993299
H      -3.088168   -2.108147    1.719749
H      -0.170824   -3.370484   -0.557896
