17

O       0.018884    0.053907    0.069403
C      -0.038133    1.252985    0.053010
C      -1.232652    2.192333   -0.029124
C      -0.815736    3.255222    1.046621
C       0.333147    3.561920    0.038432
C      -0.700006    3.227878   -1.081943
C       1.116360    2.261689    0.102025
C       2.419952    1.996350    0.711740
O       2.260901    2.033723   -0.710646
H      -2.221498    1.742915   -0.076828
H      -1.541933    4.068312    1.108443
H      -0.551966    2.904561    2.048150
H       0.898949    4.491690    0.055680
H      -0.322457    2.851362   -2.035562
H      -1.416293    4.035735   -1.245749
H       2.986046    2.821833    1.141477
H       2.618278    1.010293    1.128173
