14

O       0.057141    1.414160    0.018517
C      -0.029140    0.032662    0.021427
C      -1.386741   -0.672511   -0.079384
C      -1.662536   -0.742433   -1.582464
O      -0.598491   -0.049138   -2.259809
C       0.304471   -0.709700   -1.321751
C       1.642932   -0.921194   -1.803985
N       2.728712   -1.114601   -2.149308
C      -0.792202   -1.774402   -0.958092
H      -0.329546    1.710082   -0.817342
H       0.567865   -0.357546    0.847728
H      -2.159040   -0.755430    0.672757
H      -2.635092   -0.785912   -2.050782
H      -0.793188   -2.852329   -0.909065
