21

C       0.279037    1.477673    0.073423
C       0.134967   -0.032205   -0.005962
O       0.683015   -0.596500    1.178634
C       0.552109   -1.991767    1.257644
O       1.355425   -2.670345    0.299411
C       2.453261   -3.298177    0.949375
C       2.172007   -3.181224    2.426733
C       3.060148   -3.796657    3.457793
C       1.068428   -2.456955    2.589482
H       1.332824    1.758258    0.157973
H      -0.133494    1.947176   -0.824853
H      -0.250044    1.871232    0.946227
H      -0.926442   -0.317574   -0.097730
H       0.657994   -0.429982   -0.885807
H      -0.496373   -2.262508    1.046312
H       2.512053   -4.343454    0.613414
H       3.405883   -2.814761    0.678445
H       4.082328   -3.405639    3.380654
H       2.696851   -3.599219    4.469170
H       3.129842   -4.883389    3.324925
H       0.607346   -2.167043    3.524249
