9

F       0.055787    0.078094    0.138476
C      -0.006477    1.383931    0.037377
N      -1.179240    1.899800    0.007381
O      -1.277491    3.269564   -0.098483
N      -0.188812    4.091748   -0.172005
C       0.985271    3.564375   -0.141142
C       1.259841    2.129717   -0.031765
O       2.362547    1.626683   -0.002191
H       1.816985    4.259961   -0.202563
