18

C      -0.180765    1.532120    0.071209
C       0.068773    0.044307   -0.004333
O      -0.724126   -0.746049    0.913426
C       0.696328   -0.685395    1.109503
C       1.467284   -1.973051    0.844485
C       2.061070   -2.046553   -0.576686
C       1.148007   -1.470364   -1.629927
C       0.239027   -0.531834   -1.368853
H       0.643645    2.090414   -0.385108
H      -1.099468    1.793957   -0.465877
H      -0.291061    1.851050    1.110668
H       0.988101   -0.117406    1.993549
H       2.264184   -2.089689    1.585923
H       0.769549   -2.804149    0.991534
H       3.022542   -1.512880   -0.613295
H       2.299499   -3.087687   -0.820172
H       1.264643   -1.841583   -2.645226
H      -0.395813   -0.136017   -2.157740
