19

O      -0.063695    1.509180   -0.273472
C       0.032830    0.187875    0.219123
C      -1.321268   -0.496659    0.101945
O      -1.741128   -0.497733   -1.288720
C      -1.689753   -1.940068   -1.354789
C      -1.417831   -2.045361    0.163034
C      -0.220562   -2.874607    0.636453
C      -0.527320   -4.355709    0.559252
O       0.083309   -5.151021   -0.105411
H      -0.457048    1.432758   -1.152175
H       0.798791   -0.385898   -0.325728
H       0.344259    0.254734    1.267617
H      -2.049764    0.041162    0.720970
H      -2.631415   -2.364730   -1.718507
H      -0.869327   -2.295346   -1.991863
H      -2.312529   -2.354715    0.711546
H       0.678418   -2.677944    0.047165
H      -0.008038   -2.635052    1.688206
H      -1.402563   -4.673495    1.174366
