14

C      -0.051119    1.562586    0.096601
C       0.158161    0.091289   -0.019783
O      -0.776550   -0.816991    0.620125
C       0.603917   -0.961187    0.938431
C       1.227697   -1.829808   -0.153430
O       0.804836   -3.160613   -0.203161
C       0.677197   -0.769144   -1.171711
O       0.731448   -0.663913   -2.360879
H       0.856383    2.103901   -0.187343
H      -0.858409    1.886024   -0.567916
H      -0.319348    1.830668    1.121681
H       0.904790   -0.841978    1.972142
H       2.328862   -1.735168   -0.145478
H       0.914477   -3.472023   -1.108499
