19

O       0.221905    0.891671   -0.982044
C      -0.045587    0.210881    0.239554
C      -1.360563   -0.413068    0.177940
C      -2.444668   -0.938450    0.146560
C      -3.757847   -1.548929    0.127239
C      -4.562721   -1.633649   -1.220163
C      -3.568341   -2.738392   -1.680569
C      -3.917413   -3.077529   -0.202546
C      -5.398692   -2.762821   -0.554265
H       1.095729    1.287773   -0.902309
H       0.713518   -0.564499    0.435399
H      -0.016759    0.905251    1.095528
H      -4.356805   -1.213283    0.980684
H      -4.928990   -0.784829   -1.798463
H      -3.938915   -3.436164   -2.435849
H      -2.544305   -2.423568   -1.885934
H      -3.536993   -3.904417    0.398496
H      -6.054382   -2.473346    0.271989
H      -5.892636   -3.461695   -1.233266
