19

C       0.044580    1.612921    0.069107
C       0.009700    0.090303    0.008851
O      -1.365024   -0.355171    0.006781
C      -1.890766   -0.821894    1.155427
O      -3.025890   -1.177512    1.250260
C       0.693589   -0.507108   -1.239431
C       0.764463   -2.039016   -1.176303
C      -0.030340   -0.061588   -2.505177
O       0.358400    0.815673   -3.232505
H       1.079510    1.967138    0.079444
H      -0.458624    2.053630   -0.794821
H      -0.450578    1.968106    0.977203
H       0.507098   -0.326313    0.896302
H      -1.155660   -0.843136    1.984425
H       1.699941   -0.077962   -1.287526
H       1.295582   -2.443096   -2.042885
H       1.295967   -2.365545   -0.276821
H      -0.237079   -2.478464   -1.156749
H      -0.970010   -0.615587   -2.719749
