21

C      -0.240863    1.541699   -0.208716
C      -0.134554    0.018364   -0.095028
C       0.870635   -0.572768   -1.092310
C       0.905102   -2.104423   -1.110431
C       1.384777   -2.747936    0.184724
O      -0.380182   -2.662285   -1.543528
C       0.145982   -3.214947   -2.763526
C       1.535389   -2.689781   -2.389045
O       2.628896   -2.716568   -2.865601
H       0.724023    2.023946   -0.015971
H      -0.565650    1.842473   -1.210896
H      -0.962740    1.942478    0.509455
H       0.152632   -0.248572    0.928658
H      -1.113637   -0.439520   -0.274737
H       0.618094   -0.221035   -2.100856
H       1.883998   -0.208265   -0.881482
H       0.706658   -2.506462    1.007470
H       1.422638   -3.836226    0.086509
H       2.386246   -2.387473    0.438470
H       0.056012   -4.307483   -2.817874
H      -0.294269   -2.773042   -3.666801
