18

C       0.048613   -1.187566    0.519790
C       0.036805   -0.043183    0.152636
C       0.040316    1.351982   -0.287897
C       1.393244    2.009613   -0.170037
C       2.074390    2.597617   -1.153746
C       3.362463    3.220289   -0.672574
C       3.525509    2.624987    0.751268
C       2.113788    2.133449    1.156449
H       0.052445   -2.200024    0.839217
H      -0.309594    1.410289   -1.325364
H      -0.692884    1.909449    0.314550
H       1.738110    2.664242   -2.183592
H       4.216055    2.992947   -1.321334
H       3.278935    4.316636   -0.651856
H       4.207218    1.769925    0.708986
H       3.947255    3.338358    1.463619
H       1.594779    2.856523    1.803379
H       2.135876    1.188489    1.709414
