15

C      -0.137475    1.487699    0.090731
C       0.045463    0.011185    0.048841
C       1.193454   -0.799398   -0.429631
C       0.681193   -0.984336    1.011063
N       1.539109   -0.791948    2.117231
C      -0.654851   -1.690507    0.919239
O      -1.228623   -2.580279    1.459300
O      -1.153029   -0.825759   -0.050652
H       0.805437    1.967530    0.367819
H      -0.446825    1.875581   -0.885363
H      -0.899678    1.761114    0.826264
H       1.043234   -1.573756   -1.174909
H       2.153939   -0.293103   -0.459216
H       1.015872   -0.690312    2.980494
H       2.177147   -1.572576    2.233714
