16

C       0.109927    1.418893   -0.538636
C       0.007015    0.024948   -0.133866
C      -0.082516   -1.123719    0.212816
C      -0.167200   -2.518630    0.622594
N      -1.412160   -3.162752    0.207134
C      -2.067683   -3.095318   -0.974722
C      -3.124589   -3.959236   -0.818213
N      -3.062958   -4.503718    0.427937
N      -2.023759   -4.021933    1.048116
H       0.789712    1.539496   -1.388726
H      -0.868102    1.814469   -0.832639
H       0.485558    2.039453    0.281856
H       0.680794   -3.086124    0.218628
H      -0.135313   -2.621676    1.711222
H      -1.743351   -2.455332   -1.776940
H      -3.912221   -4.210548   -1.509731
