21

C      -0.101336    1.572329    0.105219
C      -0.060278    0.052400   -0.016483
C       0.465912   -0.392461   -1.403287
C       0.328203   -1.871565   -1.671679
C       1.065680   -2.834481   -1.113601
C       2.144284   -2.574611   -0.098263
O       1.666698   -2.570067    1.253375
C       0.575944   -1.728141    1.508201
O       0.768250   -0.412826    1.048159
H       0.899999    1.993460   -0.029515
H      -0.763726    2.005575   -0.650037
H      -0.461260    1.861986    1.095599
H      -1.075827   -0.349471    0.118958
H      -0.082914    0.166740   -2.168317
H       1.512648   -0.072918   -1.469661
H      -0.468341   -2.160835   -2.354522
H       0.845517   -3.873537   -1.346030
H       2.900915   -3.363018   -0.116885
H       2.642371   -1.619837   -0.304718
H      -0.355079   -2.132920    1.083240
H       0.504206   -1.705984    2.601287
