18

C      -0.096230    1.513858    0.008225
C       0.115274    0.034550   -0.001910
N      -0.731975   -0.928656    0.763721
C       0.739199   -0.901787    0.981617
C       1.293745   -1.802312   -0.139637
O       0.887263   -3.139743   -0.150977
C       0.648165   -0.808194   -1.148572
C       0.177139   -0.998004   -2.514365
O       1.378953   -0.252925   -2.224340
H       0.751817    2.018824   -0.463590
H      -0.999833    1.789348   -0.547544
H      -0.199720    1.893557    1.030103
H      -1.165170   -0.411967    1.528712
H       1.156798   -0.709297    1.962329
H       2.383454   -1.776265   -0.221307
H      -0.059627   -3.120941    0.045399
H       0.336278   -1.957726   -3.002606
H      -0.655511   -0.407335   -2.892875
