21

C       0.133999    1.556127    0.020867
C      -0.255901    0.083278   -0.078418
N       0.411310   -0.537826   -1.221187
C       1.704119   -1.173060   -1.010415
C       0.493197   -2.002241   -1.329989
C      -0.082258   -2.937629   -0.286381
C       0.358227   -2.532773   -2.752738
N       0.365055   -1.567934   -3.709284
O       0.285828   -3.726325   -2.985486
H       1.210353    1.664897    0.189238
H      -0.118307    2.085534   -0.902293
H      -0.389183    2.037224    0.852750
H      -0.023170   -0.424987    0.869776
H      -1.337036   -0.008054   -0.234681
H       2.462172   -0.985488   -1.766067
H       2.078735   -1.239702    0.010818
H       0.234628   -2.675663    0.724589
H      -1.177048   -2.939650   -0.318939
H       0.252193   -3.951736   -0.511735
H       0.255436   -0.609219   -3.416175
H       0.208446   -1.841104   -4.664518
