15

O      -0.181000   -0.081081    0.004336
C      -0.128129    1.119743    0.120044
C      -1.268640    2.171153   -0.069093
C      -0.636835    3.529862    0.203005
C       0.639524    3.272993    0.493297
C       2.069806    3.635820    0.875725
C       2.365674    2.088270    0.815178
N       0.948204    1.914040    0.451319
H      -1.670678    2.071847   -1.084169
H      -2.087917    1.925300    0.616618
H      -1.145965    4.479565    0.160650
H       2.610949    4.234946    0.141071
H       2.188268    4.086946    1.862612
H       3.064165    1.771669    0.036499
H       2.638540    1.622802    1.765635
