15

O       0.259668    0.794440    1.291951
C       0.146517    1.465539    0.292565
N       1.174896    1.767661   -0.555938
C       2.473550    1.183595   -0.405056
C       3.645870    1.909544   -0.962708
C       3.496720    1.793487    0.550924
C       3.180455    3.020095    1.320088
O       3.642930    3.276045    2.403261
H      -0.808254    1.920331   -0.038528
H       0.953842    2.225556   -1.426760
H       2.484441    0.097454   -0.431107
H       4.439468    1.345234   -1.436996
H       3.468471    2.891021   -1.392846
H       4.143759    1.097029    1.071151
H       2.479348    3.718539    0.810747
