20

C      -0.058919    1.529824   -0.052619
C       0.011489    0.010883   -0.004159
O       0.656847   -0.415945   -1.201435
C       0.768529   -1.822006   -1.287798
C       1.248502   -2.492699   -0.016975
C       2.256054   -2.001498    0.949468
C       2.329263   -0.484412    1.068043
C       0.782460   -0.515852    1.199009
N       0.769194   -2.035680    1.303183
H       0.945287    1.964594   -0.039526
H      -0.556759    1.852784   -0.970631
H      -0.618228    1.917232    0.803922
H      -1.009300   -0.409999    0.030929
H      -0.210845   -2.262082   -1.546322
H       1.454723   -2.030796   -2.115841
H       1.197052   -3.578747   -0.087516
H       2.953005   -2.689601    1.419461
H       2.811108   -0.174798    1.997393
H       2.761488    0.068534    0.231776
H       0.393866   -0.090820    2.126454
