15

N      -0.095529    1.493505    0.050838
C      -0.056475    0.064671    0.022979
C       0.339798   -0.803543    1.270544
C      -0.337786   -1.893578    0.413658
C      -1.349685   -0.823996   -0.048522
O       0.563044   -1.998369   -0.738514
C       0.777188   -0.677498   -1.033277
O       1.465413   -0.270746   -1.921061
H       0.850599    1.855615    0.148127
H      -0.424954    1.840165   -0.847522
H       1.399829   -0.932522    1.500379
H      -0.231064   -0.524436    2.157479
H      -0.595510   -2.890368    0.759208
H      -2.075844   -0.546774    0.717167
H      -1.827704   -0.971596   -1.019519
