18

N       0.136366    1.289147    0.378688
C       0.033623   -0.060533    0.028111
C      -0.957915   -0.965949    0.323008
N      -0.509673   -2.179951   -0.189510
C       0.697102   -1.933943   -0.762886
N       1.060198   -0.673208   -0.648021
C      -1.246822   -3.405996   -0.221477
C      -0.552789   -4.685283    0.162536
C      -1.592066   -4.087835    1.077378
H       0.822963    1.752061   -0.203266
H      -0.744463    1.784283    0.341683
H      -1.896961   -0.886113    0.842825
H       1.263838   -2.711940   -1.251422
H      -1.984679   -3.461243   -1.017863
H      -0.799895   -5.578626   -0.398960
H       0.482410   -4.617059    0.474415
H      -1.242041   -3.617152    1.988385
H      -2.560855   -4.567627    1.153147
