25

C      -0.222456    1.489822   -0.038601
C       0.125260   -0.001159   -0.095069
C       0.776882   -0.514521    1.181753
C      -0.080933   -0.614036    2.477177
C       0.591143   -1.974259    2.792699
O       1.677448   -1.703317    3.676503
C      -0.290755   -3.103251    3.321506
C       0.441305   -4.442373    3.462133
C       1.066213   -2.037139    1.306644
H       0.675261    2.099307    0.114159
H      -0.698981    1.824939   -0.965186
H      -0.910438    1.704970    0.786221
H      -0.785537   -0.583668   -0.293190
H       0.796422   -0.190171   -0.943928
H       1.688789    0.055211    1.388111
H       0.045906    0.154469    3.242099
H      -1.146432   -0.732122    2.253716
H       2.275784   -2.457166    3.647155
H      -0.691214   -2.796646    4.296001
H      -1.148596   -3.222523    2.648635
H       0.857179   -4.774883    2.504195
H       1.263072   -4.374152    4.183663
H      -0.234052   -5.225535    3.818535
H       0.387635   -2.631010    0.684313
H       2.091583   -2.377060    1.133612
