21

C       0.124849    1.501506    0.202388
C      -0.132951    0.007315   -0.036039
C       0.648888   -0.545381   -1.213025
O       0.323895    0.058398   -2.446819
C       2.088475   -1.020374   -1.123834
C       2.655084   -1.432756    0.222600
O       1.696420   -2.306650    0.818053
C       0.926801   -2.933091   -0.208676
C       0.962126   -2.003020   -1.405517
H       1.184880    1.697916    0.398065
H      -0.178203    2.104796   -0.660624
H      -0.444857    1.863265    1.063140
H       0.115144   -0.558160    0.864938
H      -1.200204   -0.149700   -0.235658
H       0.663759    0.959420   -2.431768
H       2.771128   -0.718493   -1.909799
H       3.619626   -1.944781    0.074769
H       2.814661   -0.608112    0.926390
H       1.358513   -3.907204   -0.487702
H      -0.073076   -3.109196    0.202988
H       0.812139   -2.413952   -2.396574
