12

O      -0.009560   -0.028995    0.003626
C      -0.048467    1.181939    0.006970
C       1.158689    1.989105    0.000874
C       2.190827    2.607046   -0.004497
C      -1.332762    1.930132    0.017429
N      -1.377668    3.259843    0.020820
N      -2.698624    3.497093    0.030324
C      -3.388122    2.330211    0.032274
N      -2.554169    1.316652    0.024264
H       3.100404    3.156620   -0.009244
H      -3.038703    4.446083    0.034819
H      -4.466741    2.281494    0.039474
