22

C       0.082077    1.553818    0.004726
C      -0.053554    0.027874    0.006477
C      -1.497230   -0.489084   -0.135267
C      -2.139141   -0.083848   -1.470642
C      -1.537637   -2.012791    0.046352
C      -2.923982   -2.593979    0.305238
C      -3.037210   -4.107346    0.227231
O      -3.878537   -1.899400    0.572070
H       1.119420    1.852899    0.185106
H      -0.223093    1.992142   -0.950091
H      -0.535225    2.005059    0.789711
H       0.563116   -0.395323   -0.799280
H       0.366370   -0.361968    0.943211
H      -2.100484   -0.054595    0.671866
H      -1.562395   -0.477675   -2.317369
H      -3.159900   -0.467044   -1.541827
H      -2.188802    1.002813   -1.580634
H      -1.092584   -2.527111   -0.817278
H      -0.917259   -2.313844    0.904535
H      -2.246468   -4.592340    0.809525
H      -4.016628   -4.426913    0.585293
H      -2.909415   -4.431952   -0.812347
