21

C       0.057593    1.543857   -0.079146
O       1.470874    1.555031    0.200773
C       1.472970    0.136491    0.466159
C       0.004121    0.001817   -0.008189
C      -0.987598   -0.638249    0.963347
C      -0.825946   -2.166334    0.959382
C      -0.879176   -2.698143   -0.474212
O       0.080947   -2.063241   -1.304267
C      -0.123088   -0.664189   -1.379179
H      -0.522338    2.057410    0.700706
H      -0.175720    1.998642   -1.051113
H       2.227540   -0.397200   -0.122648
H       1.632216   -0.077988    1.532228
H      -0.852945   -0.232307    1.972317
H      -2.009646   -0.378149    0.652294
H       0.139780   -2.439121    1.402327
H      -1.605951   -2.643467    1.563096
H      -0.654807   -3.767861   -0.511914
H      -1.891036   -2.549046   -0.891024
H      -1.119483   -0.444163   -1.803868
H       0.631530   -0.277208   -2.071217
