18

C       0.660336    1.368125   -0.188671
C      -0.036581    0.005973    0.015842
O      -1.422862    0.213882    0.166730
C       0.198874   -0.938847   -1.198108
O       1.023485   -2.058206   -0.870069
C       2.112714   -1.681028   -0.112840
O       1.712390   -1.268650    1.207413
C       0.520327   -0.635027    1.288155
N      -0.126723   -0.499856    2.367075
H       1.743833    1.270917   -0.312560
H       0.249641    1.845513   -1.083037
H       0.463951    2.011016    0.672651
H      -1.583249    0.170001    1.124418
H      -0.764423   -1.343667   -1.507399
H       0.647866   -0.387723   -2.036198
H       2.753358   -2.552033    0.033044
H       2.681294   -0.862733   -0.582767
H       0.339569   -0.951008    3.153241
