19

C      -0.101123   -1.166671   -0.003419
C      -0.055778    0.034167    0.002670
C       0.035233    1.487626    0.009637
C       1.487433    1.976956   -0.001783
O       1.460813    3.386680    0.006065
C       2.744009    3.970990   -0.003120
C       2.558797    5.492195    0.007039
C       3.830686    6.201489   -0.001304
C       4.894460    6.760446   -0.008707
H      -0.155800   -2.226977   -0.008627
H      -0.482067    1.906358   -0.861700
H      -0.465059    1.896872    0.895293
H       2.023735    1.588945    0.878481
H       2.006552    1.598497   -0.896391
H       3.326014    3.655423    0.877065
H       3.308867    3.665188   -0.897804
H       1.957301    5.777379   -0.864189
H       1.974276    5.767717    0.892805
H       5.827488    7.267078   -0.015649
