13

C       0.355531    1.522754    0.161339
O       1.133566    0.414694   -0.259824
C      -0.232926    0.170788    0.071618
C      -0.481627   -0.633212    1.295514
N      -1.479023   -1.514809    1.266463
C      -1.609416   -2.191027    2.402937
N      -0.850097   -2.042783    3.489978
N       0.112950   -1.131133    3.445799
N       0.312905   -0.419785    2.359926
H       0.604553    1.917434    1.143532
H       0.104306    2.247651   -0.611209
H      -0.884927   -0.084048   -0.760409
H      -2.398676   -2.935601    2.466078
