21

O       0.241275    1.161685   -0.561503
C       0.072236   -0.219166   -0.266146
C      -1.385705   -0.576052    0.033999
C      -2.351447   -0.168585   -1.112062
C      -3.338043   -1.346515   -1.254293
C      -2.489737   -2.574555   -0.934089
O      -1.646893   -2.974570   -2.023350
C      -1.609292   -2.117004    0.256212
O      -0.429680   -2.884003    0.358376
H       0.020323    1.659717    0.232110
H       0.413261   -0.750731   -1.161876
H       0.719874   -0.542579    0.558422
H      -1.671680   -0.048484    0.953130
H      -2.860275    0.779335   -0.924645
H      -1.783772   -0.017222   -2.039533
H      -4.137903   -1.265248   -0.508794
H      -3.813486   -1.413050   -2.237216
H      -3.076301   -3.463638   -0.689145
H      -1.382867   -2.187016   -2.511602
H      -2.168695   -2.265821    1.187055
H      -0.270563   -3.220247   -0.536203
