19

C      -0.047172    1.487245    0.111125
C       0.020664   -0.041541    0.048367
C       0.968844   -0.609827    1.120230
O      -1.281459   -0.615936    0.174368
C       0.563090   -0.486005   -1.323648
O       1.470333    0.108719   -1.855807
C      -0.057301   -1.705004   -1.961144
C      -0.300814   -1.672291   -3.420110
O       0.784028   -2.401551   -2.882123
H       0.921836    1.921907   -0.140877
H      -0.792053    1.860337   -0.596840
H      -0.330788    1.813229    1.117941
H       0.616294   -0.323269    2.118017
H       1.004006   -1.702023    1.070349
H       1.980915   -0.219064    0.987588
H      -1.614525   -0.403344    1.052174
H      -0.688869   -2.327387   -1.337446
H      -1.121410   -2.260907   -3.827827
H      -0.027694   -0.772176   -3.967731
