21

C      -0.037528    1.445424    0.041167
C      -0.007386   -0.063229   -0.023630
C       1.025656   -0.736248   -0.940921
C       0.360688   -2.069875   -1.363391
C      -0.736951   -2.273134   -0.308981
O      -1.715192   -3.228855   -0.617126
C      -0.117988   -2.308173    1.132327
C      -0.414209   -0.812212    1.240608
C      -1.286684   -0.853648   -0.005195
H       0.908784    1.844027    0.425800
H      -0.201319    1.881362   -0.951125
H      -0.837779    1.801440    0.698064
H       1.237510   -0.103630   -1.808849
H       1.979731   -0.894462   -0.425398
H      -0.109884   -1.980468   -2.348699
H       1.065533   -2.909063   -1.399385
H      -1.276189   -4.077504   -0.740201
H      -0.766688   -2.887188    1.794859
H       0.918839   -2.650373    1.239954
H      -0.587826   -0.268984    2.163153
H      -2.286996   -0.486638   -0.193440
