16

O       0.151044    0.092686    0.455745
C       0.088844    1.217698    0.022758
N       1.125571    1.883164   -0.609636
C       2.500155    1.837782   -0.160779
C       3.364947    2.345847   -1.328117
C       2.574795    3.679018   -1.240553
C       3.063590    5.044595   -1.421167
O       2.115134    4.451610   -2.323011
C       1.711269    3.132249   -0.121697
H      -0.841386    1.816635    0.012234
H       2.781856    1.195788    0.662481
H       4.421324    2.463051   -1.077249
H       3.257125    1.786971   -2.259178
H       2.674404    5.851852   -0.801745
H       4.059955    5.208261   -1.829206
H       1.272430    3.653354    0.721233
