19

O      -0.921257    1.098888    0.059150
C       0.227506    0.742996    0.048946
C       1.423911    1.691079    0.062939
C       1.146020    2.940111    0.905700
C       2.188872    4.026215    0.815864
C       3.513995    3.877250    0.846124
C       4.286360    2.585758    0.981440
C       3.797073    1.412536    0.128256
O       2.521773    0.917476    0.498588
H       0.521949   -0.328642    0.012474
H       1.581773    2.001646   -0.987615
H       0.170085    3.322803    0.593022
H       1.025426    2.621072    1.951045
H       1.798516    5.039752    0.755181
H       4.119604    4.780088    0.807589
H       5.336313    2.763671    0.720104
H       4.287243    2.263396    2.032905
H       3.793014    1.699024   -0.935500
H       4.483368    0.568000    0.249160
