15

C      -0.084314    1.396316   -0.013465
O      -0.017529   -0.025314   -0.023859
C      -1.201023   -0.661663    0.021157
N      -2.359560   -0.026504    0.055441
N      -3.277318   -1.048746    0.060797
C      -2.697651   -2.274570    0.059064
N      -3.465476   -3.435936    0.156399
C      -1.332703   -2.073508    0.017226
H       0.948269    1.746364   -0.056858
H      -0.647411    1.769966   -0.875271
H      -0.568701    1.761003    0.898702
H      -4.237360   -0.833791    0.264267
H      -4.244962   -3.456250   -0.490552
H      -2.905356   -4.268001    0.029890
H      -0.552197   -2.813009   -0.037929
