17

O      -0.258400    1.572367    0.218718
C      -0.048679    0.190154    0.385348
C      -1.243491   -0.597664   -0.176701
N      -1.492798   -0.139133   -1.543693
C      -2.098883   -0.932572   -2.335051
N      -2.509392   -2.211285   -2.057838
C      -1.854301   -2.980819   -1.010525
C      -1.074139   -2.101446   -0.029833
O      -0.375151   -2.613473    0.810812
H      -0.580175    1.668559   -0.688938
H       0.868155   -0.151614   -0.121824
H       0.068239   -0.011157    1.452372
H      -2.129223   -0.332903    0.427916
H      -2.361715   -0.584311   -3.334741
H      -2.893883   -2.737296   -2.826738
H      -2.590812   -3.552309   -0.432013
H      -1.138069   -3.704537   -1.421593
