18

C       0.004880    1.602187    0.168157
C       1.270473    0.846213   -0.098759
O       2.219693    0.924032    0.939590
C       3.073199   -0.087764    1.278666
N       3.008853   -1.344384    1.217136
C       1.831200   -2.071441    0.740426
C       0.588140   -1.769780    1.552338
C      -0.250025   -0.782011    1.245307
C      -0.028874    0.092259    0.060352
H      -0.075313    2.025555    1.163789
H      -0.433707    2.199193   -0.622952
H       1.727787    0.896217   -1.083289
H       3.955664    0.369707    1.727518
H       1.644939   -1.866678   -0.320326
H       2.066025   -3.137391    0.816940
H       0.413116   -2.382731    2.432281
H      -1.132078   -0.596377    1.853466
H      -0.437125   -0.288226   -0.875551
