12

F      -0.000718    0.071206   -0.099771
C      -0.031185    1.404622   -0.013362
F       1.225027    1.852184   -0.103109
F      -0.713184    1.872014   -1.066954
C      -0.701088    1.868045    1.278865
C      -0.021133    1.402827    2.474099
C       0.529714    1.025430    3.478433
C       1.214920    0.555351    4.657773
O       0.861517    0.793900    5.788798
H      -0.736230    2.962861    1.257795
H      -1.736213    1.509605    1.260518
H       2.113491   -0.057093    4.444773
