15

O      -0.228231    1.470258    0.078523
C      -0.121002    0.063451    0.074129
C      -0.467256   -0.780616    1.262071
C      -1.573362   -0.110091    2.081174
C      -2.493559   -0.116554    0.807750
O      -3.052215    1.082450    0.347931
C      -1.360456   -0.758669   -0.009345
H       0.438374    1.824892    0.676595
H       0.708857   -0.307231   -0.526629
H       0.190325   -1.566662    1.613665
H      -1.962332   -0.735296    2.887304
H      -1.338632    0.880502    2.481394
H      -3.324578   -0.813326    0.942250
H      -2.306364    1.666539    0.158114
H      -1.491435   -1.505971   -0.783460
