13

N      -0.118680    1.261841   -0.475898
C       0.018279    0.069594   -0.036843
N      -1.133822   -0.662769    0.280681
C      -1.105246   -1.927799    0.751074
C       0.095126   -2.555285    0.938522
N       1.288950   -1.912741    0.652864
C       1.243456   -0.705208    0.204560
C       0.146272   -3.890981    1.434378
N       0.161698   -4.976315    1.838303
H       0.789006    1.681975   -0.667580
H      -2.011052   -0.181526    0.135242
H      -2.055950   -2.399681    0.963721
H       2.186260   -0.207259   -0.017492
