17

N      -0.072497    1.410143   -0.206570
C      -0.025163    0.007983   -0.039468
C      -0.380720   -0.881507   -1.186823
C      -1.229404   -0.990110    0.061903
C      -0.472237   -1.826397    1.101598
C       0.700338   -0.784919    1.049445
O       1.984301   -1.215538    0.664411
C      -2.622079   -0.704186    0.085399
N      -3.756041   -0.472926    0.133386
H      -0.026822    1.905399    0.676903
H       0.676492    1.744366   -0.803330
H      -0.852168   -0.360127   -2.012164
H       0.254865   -1.717850   -1.462214
H      -0.965903   -1.877061    2.073312
H      -0.204699   -2.833655    0.770371
H       0.735651   -0.204481    1.982719
H       2.395349   -1.667254    1.408468
