18

C       0.043526    1.384727   -0.045316
O       0.040020   -0.034034    0.039061
C       0.662440   -0.531193    1.171220
C       0.380813   -0.342494    2.659912
N       1.527704   -1.354371    2.675801
C       0.953532   -2.035663    1.405485
C       2.325347   -1.973465    0.713572
O       2.388859   -1.963252   -0.682867
C       2.201205   -0.642725    1.478552
H       1.066751    1.783444   -0.069128
H      -0.467012    1.650793   -0.972509
H      -0.491828    1.835974    0.800197
H       0.641183    0.609630    3.132024
H      -0.554848   -0.739747    3.065239
H       0.226671   -2.844681    1.492580
H       3.082038   -2.669593    1.082354
H       1.680208   -1.390693   -1.003891
H       2.923448    0.157063    1.649387
