18

C      -0.581691    1.344796    0.132523
C      -0.003827   -0.053999   -0.023519
C       0.819457   -0.305381   -1.317407
C       2.070304   -0.408071   -0.370326
N       1.201369   -0.353013    0.809614
C       2.854919   -1.704188   -0.513555
O       3.497459   -1.983925   -1.493090
C       3.011978    0.771258   -0.552632
O       3.022711    1.723254    0.185475
H       0.183921    2.108814   -0.034636
H      -1.397956    1.507043   -0.579734
H      -0.986536    1.483377    1.141016
H      -0.790057   -0.798889    0.143305
H       0.598820   -1.229786   -1.852809
H       0.845867    0.520866   -2.031289
H       1.460513    0.410896    1.430317
H       2.768034   -2.374322    0.369036
H       3.688883    0.685875   -1.426600
