18

O       0.027277    1.290019   -0.318317
C      -0.009114   -0.037749    0.177649
C      -1.420271   -0.561372    0.220968
C      -2.430056    0.024815    1.203200
O      -3.418442   -0.995805    1.392895
C      -3.286489   -1.872615    0.288988
C      -3.410976   -1.111661   -1.052786
N      -1.916461   -0.953837   -1.144611
C      -1.774610   -1.966700   -0.031218
H      -0.358521    1.254465   -1.201702
H       0.609517   -0.713966   -0.429642
H       0.417507   -0.002018    1.185715
H      -1.962016    0.247810    2.168006
H      -2.888480    0.948227    0.826922
H      -3.886948   -2.763605    0.465462
H      -3.738563   -1.743700   -1.881750
H      -3.990979   -0.183100   -1.046339
H      -1.111219   -2.822098   -0.073890
