14

N      -0.005626    1.392955    0.120485
C      -0.007234    0.003167    0.046430
C      -1.192183   -0.745965    0.048095
N      -1.192338   -2.074296    0.031245
C      -0.006605   -2.692015    0.032274
N      -0.007418   -4.082499    0.091730
C       1.178327   -1.942867    0.027627
N       1.178362   -0.614432    0.024727
H       0.877646    1.793392   -0.163471
H      -0.795111    1.850367   -0.311294
H      -2.162558   -0.253459    0.056132
H      -0.894026   -4.480005   -0.185871
H       0.776864   -4.535309   -0.354145
H       2.148698   -2.435368    0.018871
