18

C       0.165593    1.511231   -0.052341
C       0.423004    0.016658   -0.012345
O       0.210716   -0.506507   -1.323050
C       0.408739   -1.871139   -1.434356
C       0.125357   -2.423220   -2.838331
O       1.438793   -3.031994   -2.913311
C       1.866463   -2.411241   -1.689748
C       2.885738   -1.378240   -1.890428
N       3.691030   -0.560216   -2.024672
H       0.854720    1.996106   -0.748538
H      -0.858294    1.717112   -0.376603
H       0.310905    1.945513    0.940932
H       1.453663   -0.188411    0.310797
H      -0.256383   -0.485985    0.694444
H      -0.080790   -2.424814   -0.621778
H      -0.672415   -3.165032   -2.934270
H      -0.003484   -1.628444   -3.581011
H       2.241063   -3.149906   -0.972176
