13

O      -0.166740    0.028995   -0.258531
C      -0.034142    1.215939   -0.151656
N       1.167569    1.899709   -0.003797
C       1.244535    3.346717    0.159918
C       2.743516    3.581711   -0.080858
O       3.360265    2.317567    0.185878
C       2.444828    1.308483    0.112552
O       2.724176    0.153547    0.157459
H      -0.881669    1.930885   -0.170002
H       0.618118    3.871988   -0.564781
H       0.942001    3.647819    1.169701
H       2.950798    3.865124   -1.118398
H       3.174979    4.326911    0.588512
