17

C      -0.055565    1.522491    0.019921
C      -0.005460    0.007871   -0.025755
C      -1.259087   -0.648994   -0.569462
C       1.308430   -0.657753   -0.256366
C       0.709023   -0.710898    1.163479
C       1.330372    0.091382    2.187040
N       1.829838    0.752711    2.993376
C       0.186888   -1.971789    1.627084
N      -0.242427   -2.986247    1.978600
H       0.853324    1.956177    0.442094
H      -0.178792    1.911625   -0.996207
H      -0.904977    1.866775    0.617900
H      -1.418400   -0.325200   -1.603341
H      -1.194755   -1.739030   -0.560735
H      -2.137262   -0.356470    0.014361
H       1.333593   -1.603878   -0.784799
H       2.197038   -0.045993   -0.361977
