14

N      -0.096979    1.365549    0.118436
C      -0.041139   -0.001127    0.015869
N      -1.167189   -0.705105   -0.003426
C      -1.065663   -2.036232   -0.047953
O      -2.214580   -2.749931   -0.062735
C       0.157738   -2.689830   -0.085247
N       1.296328   -1.974707   -0.078783
C       1.206702   -0.670938   -0.027690
O       2.332408    0.096186   -0.025364
H       0.727989    1.869332   -0.164934
H      -0.981180    1.785318   -0.122291
H      -2.933221   -2.105235   -0.027122
H       0.226026   -3.769826   -0.125360
H       3.077993   -0.516549   -0.074416
