17

C       0.037646    1.564185    0.112733
C      -0.057405    0.035674   -0.038089
C       0.665161   -0.487181   -1.253801
C      -0.001600   -0.945214   -2.392729
N       0.586872   -1.406200   -3.498909
C       1.920971   -1.431920   -3.510688
C       2.710461   -1.009953   -2.444349
C       2.055295   -0.537785   -1.320343
F       2.769713   -0.121519   -0.269014
H       1.079334    1.880311    0.214331
H      -0.387584    2.071442   -0.758701
H      -0.506974    1.898212    1.000953
H       0.353083   -0.438900    0.860461
H      -1.108910   -0.264140   -0.100146
H      -1.090365   -0.937129   -2.398819
H       2.390285   -1.809299   -4.415642
H       3.792423   -1.044973   -2.478590
