21

O      -0.026568    1.471524   -0.080640
C      -0.009630    0.049805    0.023791
C       0.718240   -0.448488    1.285338
C       1.196473    0.494523    2.366676
C      -0.038381   -0.341172    2.588238
C      -1.429121    0.283251    2.474134
C      -2.212153   -0.350106    1.325438
C      -2.630549    0.470854    0.131842
C      -1.452594   -0.463076    0.022406
H       0.884903    1.771889   -0.004954
H       0.503051   -0.369139   -0.853647
H       1.312616   -1.343220    1.126635
H       2.106328    0.236379    2.898346
H       1.050292    1.560121    2.221132
H       0.050020   -1.175528    3.277714
H      -1.974005    0.171525    3.416037
H      -1.330986    1.357934    2.295187
H      -2.847385   -1.188715    1.595282
H      -3.540919    0.197712   -0.391398
H      -2.419352    1.533332    0.149945
H      -1.592476   -1.367858   -0.560038
