18

C      -0.087281    1.597143   -0.007396
C       0.027042    0.076804    0.049073
C      -1.336142   -0.602654   -0.095566
O       0.865820   -0.361020   -1.049572
C       1.815434   -1.251629   -0.639561
O       2.556751   -1.805199   -1.389602
N       1.784389   -1.417591    0.787336
C       2.198470   -0.149863    1.453806
C       0.768294   -0.469045    1.270197
H       0.896235    2.069736    0.043714
H      -0.571074    1.908696   -0.937106
H      -0.689351    1.959916    0.831224
H      -1.788663   -0.338495   -1.054725
H      -1.233259   -1.690572   -0.049181
H      -2.009511   -0.283393    0.706188
H       2.664288   -0.293434    2.422789
H       2.653771    0.615113    0.831467
H       0.170440   -0.797041    2.114742
