19

O       0.010635   -0.053381   -0.002221
C      -0.026454    1.159749    0.044550
C      -1.299396    1.918775    0.077554
C      -1.290846    3.258424    0.134719
C       0.000324    4.039565    0.179752
C       0.640268    4.080937   -1.240794
C       1.370367    2.714181   -1.372667
C       1.232418    2.026878    0.024025
C       1.042689    3.226500    0.971457
H      -2.215504    1.338027    0.042242
H      -2.225006    3.814965    0.118450
H      -0.171538    5.041439    0.580089
H      -0.104125    4.240816   -2.024288
H       1.352816    4.909905   -1.293910
H       0.959076    2.091269   -2.170768
H       2.429264    2.862636   -1.601201
H       2.085187    1.388642    0.260550
H       1.977464    3.787491    1.081827
H       0.692303    2.942141    1.967567
