21

C      -0.007666    1.528582    0.274294
C      -0.077533    0.020604    0.249760
C      -1.261021   -0.706963   -0.223414
O      -0.089530   -0.612308   -1.035729
C       1.399278    2.081386    0.019201
C       1.979028    1.777637   -1.392656
C       2.795155    3.008761   -1.703625
C       2.540052    4.007231   -0.860134
C       1.504065    3.625042    0.169858
H      -0.703917    1.927799   -0.474043
H      -0.362225    1.872440    1.256038
H       0.564046   -0.485716    0.974844
H      -1.482860   -1.700274    0.164644
H      -2.124331   -0.147308   -0.582200
H       2.080625    1.636153    0.756002
H       2.565204    0.852530   -1.410592
H       1.179660    1.636009   -2.133108
H       3.475276    3.061020   -2.547081
H       2.978033    4.998285   -0.908673
H       0.542706    4.115816   -0.047590
H       1.773971    3.924846    1.189408
