18

C       0.144252    1.448699    0.245341
C      -0.142565   -0.022169   -0.084557
C       0.578696   -0.503726   -1.307927
C       1.997845   -1.007520   -1.371925
C       0.828529   -1.912091   -1.807321
O       0.520678   -3.091530   -1.177360
C       0.368268   -1.420808   -3.179231
O       0.254253   -1.877369   -4.280084
N       0.123192   -0.128137   -2.662098
H       1.212413    1.614071    0.419949
H      -0.168357    2.104921   -0.573724
H      -0.397391    1.758812    1.143601
H       0.149537   -0.659572    0.757790
H      -1.218138   -0.167913   -0.236090
H       2.701190   -0.610236   -2.098287
H       2.434828   -1.316063   -0.425382
H       1.147990   -3.765599   -1.461892
H       0.453123    0.702991   -3.142540
