21

C      -0.121959    1.549192   -0.040060
C       0.037742    0.033237   -0.025014
C       1.080281   -0.593773   -0.982750
C       2.387164   -0.063351   -0.362948
O       2.102886   -0.050236    1.048673
C       0.780708   -0.573918    1.184909
C       0.292506   -0.363418    2.593648
O       0.798695   -1.968546    0.881902
C       0.964357   -2.062707   -0.547105
H       0.812903    2.060348    0.201988
H      -0.460077    1.897971   -1.021487
H      -0.870353    1.864619    0.694223
H      -0.936751   -0.451132   -0.145028
H       0.963858   -0.413394   -2.051728
H       3.242591   -0.719222   -0.564830
H       2.641208    0.949867   -0.697035
H       0.278868    0.701766    2.834716
H      -0.713057   -0.774382    2.708192
H       0.960791   -0.871544    3.292873
H       0.093535   -2.565001   -0.989043
H       1.861161   -2.650889   -0.775416
