17

C      -0.171392    1.409456    0.104826
N      -0.059875   -0.036408    0.090028
C      -0.058848   -0.843081   -0.995035
N       0.064976   -2.120534   -0.674625
C       0.143632   -2.125640    0.683594
O       0.273804   -3.276046    1.382784
C       0.075122   -0.855485    1.211869
C       0.075502   -0.355098    2.609955
O      -1.151777    0.283385    2.989431
H       0.791931    1.878993    0.332831
H      -0.502486    1.751151   -0.877642
H      -0.896680    1.710699    0.863531
H      -0.157678   -0.454199   -1.997842
H       0.297508   -3.985667    0.729376
H       0.312490   -1.197572    3.272874
H       0.841984    0.411685    2.772552
H      -1.857571   -0.351483    2.823672
