22

C      -0.136196    1.531959    0.025201
C       0.016466    0.005972    0.028209
C       0.716469   -0.496580   -1.240634
C       0.772839   -0.474952    1.265153
O       0.031591   -0.111241    2.422565
C       0.610467   -0.527006    3.643111
C       1.665053    0.458767    4.167288
C      -0.485692   -0.678227    4.618116
N      -1.320460   -0.800042    5.406644
H       0.843179    2.021467   -0.044888
H      -0.733659    1.861748   -0.830399
H      -0.623315    1.877639    0.939651
H      -0.984573   -0.441956    0.077354
H       1.732135   -0.090678   -1.318969
H       0.789410   -1.589206   -1.258489
H       0.167973   -0.183700   -2.134050
H       0.899940   -1.569400    1.236492
H       1.778884   -0.024921    1.286435
H       1.069483   -1.521735    3.522524
H       2.065089    0.118897    5.126424
H       2.490949    0.534625    3.455910
H       1.218358    1.446718    4.299335
