18

C       0.036085    1.569794   -0.128123
C      -0.005681    0.055686    0.139493
C      -1.389756   -0.524696    0.068139
C      -2.148184   -0.975003    1.132312
N      -3.354697   -1.404711    0.657215
C      -3.401145   -1.244995   -0.713849
C      -2.185749   -0.697270   -1.095419
C      -4.531660   -1.614037   -1.467399
C      -5.507508   -1.934504   -2.099191
H       1.061674    1.949926   -0.077753
H      -0.362957    1.804895   -1.119896
H      -0.566675    2.112406    0.606891
H       0.645192   -0.452299   -0.583438
H       0.420607   -0.149516    1.128404
H      -1.915095   -1.022106    2.184659
H      -4.102834   -1.792420    1.205046
H      -1.910677   -0.455611   -2.110735
H      -6.360796   -2.213035   -2.665705
