18

C       0.131687    1.444105   -0.445642
C       0.089841   -0.031854   -0.103256
C       1.281650   -0.864334   -0.413763
N       0.948289   -0.540897    0.985668
C      -1.270931   -0.696794   -0.134177
C      -2.443019   -0.103228    0.675319
O      -3.207086    0.096582   -0.559217
C      -2.183385   -0.390491   -1.332774
O      -2.142840   -0.471728   -2.517901
H       1.161002    1.814511   -0.427460
H      -0.272047    1.626034   -1.446940
H      -0.449272    2.042828    0.264828
H       1.165929   -1.910273   -0.683815
H       2.132584   -0.372456   -0.877192
H       1.555082    0.203041    1.322375
H      -1.155328   -1.771311    0.022340
H      -2.962789   -0.788820    1.346239
H      -2.258018    0.850925    1.171568
