13

N      -0.101996    1.316718    0.008863
C       0.054015   -0.034251    0.002510
O       1.135401   -0.600278   -0.008884
C      -1.227929   -0.778014    0.011095
C      -1.373343   -2.142170    0.007969
N      -2.726915   -2.359004    0.018762
C      -3.339873   -1.136841    0.027870
N      -2.464343   -0.162541    0.023552
H       0.714681    1.902382    0.002410
H      -1.025926    1.715670    0.016946
H      -0.648535   -2.937338   -0.000731
H      -3.184166   -3.255701    0.019776
H      -4.414263   -1.030476    0.037317
