20

C       0.241930    1.593380   -0.004876
C      -0.017134    0.089624    0.053038
C       0.761316   -0.647119   -1.062019
O       0.015262   -1.664771   -1.732373
C      -0.387822   -2.813797   -1.132165
N      -0.227023   -3.334122    0.002621
C       0.495779   -2.813397    1.148913
C      -0.123284   -1.565289    1.810694
O       0.367104   -0.324129    1.350457
H       1.312185    1.801015    0.097919
H      -0.103917    2.010774   -0.954838
H      -0.280741    2.093847    0.813190
H      -1.090104   -0.107407   -0.104947
H       1.004874    0.052591   -1.864680
H       1.700342   -1.036886   -0.659420
H      -0.980926   -3.356207   -1.870524
H       0.484724   -3.610445    1.901243
H       1.552873   -2.610051    0.937508
H      -1.219136   -1.615136    1.712647
H       0.122705   -1.580306    2.876971
