18

O       0.098013    0.231209   -0.653952
C       0.173917    1.414148   -0.505978
O       1.003805    1.985831    0.383971
C       1.025602    3.419561    0.473296
C       2.411991    3.934872    0.136577
C       2.910104    3.844341   -1.354582
C       3.054166    5.369026   -1.353150
N       1.702405    5.908884   -1.069671
C       2.569779    5.462271    0.050375
H      -0.422311    2.155762   -1.073502
H       0.285667    3.857850   -0.204841
H       0.752065    3.679801    1.501752
H       3.146982    3.494206    0.814603
H       3.858627    3.312002   -1.439928
H       2.201701    3.447513   -2.086344
H       3.789856    5.969579   -1.873103
H       1.768402    6.925556   -1.108390
H       2.844326    6.144578    0.845513
