18

O       0.185032    0.008902    0.008645
C       0.097235    1.215231   -0.019197
N      -0.972192    1.968839   -0.495028
C      -0.853714    3.359366   -0.078063
C       0.684324    3.507241    0.127738
N       1.047159    2.130163    0.401033
C       1.369683    4.135514   -1.081221
C       2.687244    3.674994   -1.581272
N       1.464692    3.439354   -2.368261
H      -1.869641    1.510976   -0.505563
H      -1.222335    4.046495   -0.844411
H      -1.389862    3.559471    0.859847
H       0.886402    4.145337    0.995934
H       1.979309    1.821252    0.614106
H       1.131067    5.194277   -1.181940
H       3.384995    4.388106   -2.010848
H       3.156643    2.823338   -1.095986
H       1.168651    2.471406   -2.260279
