19

C       0.020590    1.591458   -0.034964
C       0.093897    0.062876   -0.052429
C       0.629730   -0.528675    1.264952
C       0.717860   -2.027695    1.260972
C      -0.096316   -2.899096    1.950947
N       0.297175   -4.181856    1.658083
C       1.357255   -4.151381    0.789196
C       1.640266   -2.832829    0.523903
H       1.009031    2.034302    0.133021
H      -0.363306    1.985018   -0.981562
H      -0.638416    1.948007    0.765033
H      -0.899424   -0.358041   -0.251071
H       0.732851   -0.268823   -0.880140
H       1.619339   -0.095766    1.466748
H      -0.016162   -0.203437    2.090460
H      -0.916875   -2.708113    2.624747
H      -0.119299   -5.014571    2.034446
H       1.817613   -5.062100    0.440992
H       2.426094   -2.474820   -0.124761
