18

C      -0.058895    1.595501   -0.078947
C      -0.006029    0.078712    0.059586
N       0.755567   -0.549204   -1.124315
H       0.142148   -0.756979   -1.912788
H       1.448802    0.127719   -1.445398
C       1.495876   -1.786479   -0.581075
C       1.585512   -1.479339    0.882840
C       0.774986   -0.476526    1.219228
C       2.528105   -2.365015    1.730921
O       2.606096   -2.071354    2.927190
O       3.051165   -3.252042    1.018085
H       0.948572    2.024963   -0.061051
H      -0.574267    1.912407   -0.991959
H      -0.606489    2.008463    0.772044
H      -1.024298   -0.331992    0.000541
H       0.890752   -2.669000   -0.805103
H       2.462643   -1.890686   -1.071514
H       0.658475   -0.102208    2.227867
