16

C       0.132538    0.962892    0.575659
O      -0.471311    0.211483   -0.475784
C      -1.273664   -0.788609   -0.084555
N      -1.831592   -1.517838   -0.953919
C      -2.694384   -2.575632   -0.507960
C      -2.408995   -3.995191   -1.047598
O      -2.328416   -4.508337    0.324044
C      -2.484581   -3.260514    0.862804
O      -2.416878   -2.945663    2.009934
H       0.718400    1.745237    0.092775
H      -0.623543    1.424045    1.221201
H       0.796218    0.336286    1.182159
H      -1.386339   -0.901061    1.000394
H      -3.743444   -2.290859   -0.650496
H      -3.207704   -4.491608   -1.600354
H      -1.449164   -4.095837   -1.555940
