19

C      -0.100013    1.562911    0.074900
C       0.070737    0.042582    0.013642
C       0.877181   -0.449358   -1.243768
C       1.476011   -1.770741   -0.747961
C       2.948279   -2.279022   -0.750163
O       3.791127   -1.307531   -0.134852
C       3.012355   -2.171432    0.730455
C       1.654432   -1.508660    0.734838
C       0.888839   -0.523203    1.184962
H       0.873082    2.063824    0.123289
H      -0.625305    1.932545   -0.812129
H      -0.678728    1.865202    0.954306
H      -0.932413   -0.411740   -0.002389
H       0.252738   -0.530426   -2.138457
H       1.680232    0.269340   -1.443423
H       0.813992   -2.629341   -0.926995
H       3.419592   -2.993004   -1.416292
H       3.556389   -2.744493    1.470349
H       0.865447   -0.088510    2.178072
