25

C       0.588892   -0.128118   -1.539482
C       0.045630    0.076262   -0.115543
C       0.147383    1.554746    0.290515
C      -1.392746   -0.454023    0.106949
C      -2.431814    0.039125   -0.933968
C      -2.626148   -1.172108   -1.884994
O      -1.782657   -2.214075   -1.408984
C      -1.573990   -1.986617   -0.017413
C      -0.463299   -2.898105    0.476747
H       1.640358    0.174178   -1.591266
H       0.509511   -1.167318   -1.864370
H       0.042809    0.485242   -2.265466
H       0.695401   -0.484617    0.569355
H      -0.484138    2.190391   -0.341032
H      -0.162134    1.707553    1.330078
H       1.176336    1.916097    0.190261
H      -1.694889   -0.144782    1.114155
H      -3.375005    0.297977   -0.445799
H      -2.095365    0.930083   -1.468566
H      -3.674870   -1.505052   -1.885894
H      -2.339401   -0.958536   -2.919100
H      -2.499818   -2.248030    0.529080
H       0.475954   -2.718885   -0.051314
H      -0.295108   -2.747613    1.547810
H      -0.744668   -3.943166    0.320094
