23

C       0.060511    1.588427   -0.121693
C      -0.058144    0.079297   -0.037727
C      -1.363872   -0.479746   -0.549259
O      -1.484069   -0.178105   -1.933382
C      -2.692599   -0.590704   -2.485079
C      -3.908022    0.293112   -2.349334
C      -3.177346    0.172078   -3.673413
C       1.179843   -0.758350   -0.243671
C       0.572375   -0.636320    1.133401
H       1.034805    1.929414    0.241528
H      -0.057246    1.926501   -1.155305
H      -0.711735    2.079047    0.483422
H      -1.399180   -1.570904   -0.396864
H      -2.212859   -0.043574    0.001982
H      -2.849131   -1.670816   -2.465981
H      -4.883875   -0.168111   -2.243586
H      -3.779208    1.220253   -1.801974
H      -2.571146    1.016477   -3.980839
H      -3.645436   -0.373068   -4.485181
H       1.077027   -1.702972   -0.766844
H       2.115075   -0.244337   -0.437894
H       1.090329   -0.032973    1.871444
H       0.065281   -1.501831    1.547934
