19

C      -0.079264    1.522864   -0.073292
C       0.020038    0.016650    0.009584
C       1.324325   -0.690114   -0.212624
C       0.717163   -0.665464    1.182663
C       1.343444    0.080537    2.356096
C       1.081295   -0.825265    3.578359
O       1.428871   -0.593103    4.713261
C       0.335685   -2.002987    3.085280
C       0.145151   -1.902160    1.760613
H       0.841698    2.006224    0.266052
H      -0.256318    1.839969   -1.106698
H      -0.903729    1.905088    0.538453
H      -0.862228   -0.505943   -0.353236
H       1.332256   -1.631463   -0.752234
H       2.210169   -0.080837   -0.364264
H       2.420990    0.236012    2.246990
H       0.893882    1.061358    2.539572
H       0.013422   -2.806671    3.733919
H      -0.370049   -2.630031    1.140850
