15

C      -0.033927    1.440636    0.136384
C       1.306460    0.736306    0.005691
N       2.046004    0.322418    1.189344
C       1.186110   -0.474128    1.930283
N       1.147566   -1.003633    3.132808
C      -0.061915   -1.660593    3.084122
N      -0.757108   -1.551463    1.961392
N       0.090209   -0.785969    1.214010
C       0.008802   -0.062620   -0.016257
H      -0.333452    1.842918    1.097711
H      -0.356113    2.011412   -0.727345
H       1.900052    0.882179   -0.888153
H       2.572302    1.022983    1.691601
H      -0.430429   -2.245815    3.913708
H      -0.377611   -0.580491   -0.884285
