14

N       0.048133   -3.737765    0.080233
C       0.053810   -2.576173    0.043155
C       0.060869   -1.213617   -0.004549
C       0.077310   -0.004488   -0.043398
C       0.056108    1.408608   -0.140436
C      -0.732371    2.296246   -1.125508
C       0.425273    3.349850   -1.034387
C       1.146275    2.421037   -0.050686
O       0.273056    2.191145    1.047992
H      -0.821088    1.852365   -2.118157
H      -1.715769    2.599680   -0.762957
H       0.956483    3.467618   -1.980756
H       0.171109    4.330923   -0.628884
H       2.207423    2.279585    0.119431
