21

O       0.132729    1.351652   -0.083762
C       0.022062   -0.042902   -0.003723
C      -0.417238   -0.746561    1.270751
C      -1.286600   -0.745539    0.039876
C      -2.682696   -0.135882   -0.203386
C      -2.563714   -0.753785   -1.628445
C      -1.807221   -1.880291   -0.861535
C      -2.926311   -2.481803    0.016513
C      -3.593445   -1.154075    0.516140
H      -0.661594    1.740936    0.295634
H       0.834395   -0.494091   -0.566468
H       0.094430   -1.658261    1.566649
H      -0.719357   -0.116679    2.104142
H      -2.895745    0.924608   -0.052078
H      -3.489794   -1.020755   -2.147176
H      -1.907371   -0.175815   -2.281068
H      -1.130236   -2.570117   -1.366844
H      -3.612388   -3.110355   -0.558650
H      -2.527364   -3.081365    0.839299
H      -3.551861   -1.050159    1.603804
H      -4.638608   -1.062196    0.206669
