21

C      -0.176043    1.686120    0.175445
C      -0.047633    0.163288    0.113591
N      -1.333427   -0.506172   -0.098173
C      -1.847370   -0.318599   -1.450761
C      -1.418408   -1.880518    0.303530
C      -0.268710   -2.816216    0.568169
C      -1.179790   -2.392945    1.725111
C      -0.679819   -1.560809    2.779531
N      -0.290962   -0.897617    3.645413
H       0.793953    2.127623    0.423294
H      -0.498491    2.120146   -0.775224
H      -0.894450    1.973423    0.947811
H       0.680801   -0.121579   -0.669040
H       0.364228   -0.170577    1.067375
H      -1.205794   -0.772140   -2.228618
H      -2.846889   -0.755514   -1.533256
H      -1.938261    0.747262   -1.669122
H      -2.289560   -2.352110   -0.139698
H      -0.327175   -3.849257    0.243745
H       0.732774   -2.403816    0.579039
H      -1.896012   -3.129255    2.075299
