21

O      -0.071193    1.437818    0.041515
C       0.034364    0.019605    0.036549
C      -1.383495   -0.551726   -0.050696
C      -2.064731   -0.161566   -1.343354
C      -2.903501   -0.960359   -2.005506
C      -3.292471   -2.339527   -1.536872
C      -2.810091   -2.626863   -0.104158
C      -1.394414   -2.081482    0.126012
O      -0.444284   -2.719616   -0.728718
H       0.814155    1.804525   -0.034023
H       0.634836   -0.335355   -0.811904
H       0.517003   -0.347014    0.956295
H      -1.938749   -0.108209    0.789348
H      -1.829201    0.827609   -1.724910
H      -3.340889   -0.620503   -2.942008
H      -4.380764   -2.461612   -1.599102
H      -2.884261   -3.090378   -2.229700
H      -3.487301   -2.151665    0.615908
H      -2.825150   -3.702774    0.094445
H      -1.062510   -2.332153    1.139723
H      -0.625779   -2.423041   -1.628077
