21

C       0.212067    1.545210   -0.166044
O      -0.339511    0.312205   -0.572870
C       0.591047   -0.546436   -1.170699
C       1.631988   -1.288313   -0.284696
C       1.328516   -2.577108   -1.100206
C       0.013010   -1.916856   -1.614187
C      -1.242765   -2.339162   -0.835376
C      -1.705321   -3.703215   -1.285516
O      -1.727440   -4.691138   -0.596273
H       0.993995    1.414611    0.596393
H       0.647834    2.093256   -1.016216
H      -0.599190    2.139833    0.260254
H       1.087733   -0.040210   -2.014178
H       2.659085   -0.917513   -0.281524
H       1.277786   -1.363671    0.747143
H       2.050693   -2.742533   -1.903331
H       1.215806   -3.505929   -0.537182
H      -0.178505   -2.006394   -2.688507
H      -1.061474   -2.363894    0.242097
H      -2.040935   -1.612466   -1.032965
H      -2.022665   -3.748272   -2.355201
