10

O       0.182405   -0.190460   -0.088871
C       0.083039    0.987393   -0.197743
O      -1.100095    1.560551   -0.605064
N      -1.444930    3.025286   -0.378386
N      -0.697393    3.854559   -0.845269
C       0.543615    3.583147   -1.494819
N       1.446136    2.824402   -1.045015
C       1.219902    1.997632    0.066627
O       1.863423    2.006571    1.074949
H       0.692190    4.189840   -2.384374
