17

C      -0.087527    1.517822   -0.055457
N       0.030363    0.056331   -0.055206
C       0.779570   -0.500719   -1.173791
C       0.650666   -2.060141   -1.210952
C      -0.511399   -1.966695   -2.242934
C      -0.172204   -0.486924   -2.428628
O      -0.460127    0.359118   -3.215749
C       2.128965    0.047451   -1.351489
N       3.189485    0.493090   -1.474369
H       0.880326    2.039111   -0.015513
H      -0.608826    1.838572   -0.960721
H      -0.685786    1.817313    0.808561
H       0.450692   -0.261054    0.813273
H       1.543661   -2.536400   -1.617023
H       0.404898   -2.502228   -0.245494
H      -0.434138   -2.573261   -3.147784
H      -1.504286   -2.106166   -1.807925
