16

O      -0.169307    1.331146    0.151950
N       0.019267   -0.067589    0.139363
C      -1.102640   -0.653415    0.094958
C      -2.553458   -0.201145   -0.042278
O      -2.830415    0.675635   -1.105870
C      -2.936752   -1.688896   -0.324489
C      -1.478854   -2.097074   -0.036313
C      -0.686055   -3.253077   -0.465314
O      -1.107679   -3.103849    0.893691
H       0.734537    1.664389    0.163005
H      -2.962681    0.164723    0.911114
H      -2.243006    1.433413   -0.998089
H      -3.675776   -2.123313    0.350086
H      -3.239929   -1.837260   -1.362723
H      -1.172686   -4.052299   -1.023150
H       0.381459   -3.131332   -0.640386
