18

C       0.001744    1.512015   -0.003298
C      -0.206409   -0.004839    0.164198
O       0.138108   -0.412897    1.460912
C      -1.657199   -0.393542   -0.126012
O      -2.375038   -0.766761    0.774041
C      -2.147837   -0.337923   -1.569975
O      -3.548902   -0.352034   -1.686518
C      -4.174642   -1.530634   -1.442070
N      -5.431489   -1.580745   -1.483264
H       1.022132    1.755216    0.301446
H      -0.135290    1.838368   -1.038802
H      -0.689288    2.065989    0.638899
H       0.436558   -0.528008   -0.562631
H      -0.696393   -0.662567    1.888120
H      -1.803403    0.578150   -2.056152
H      -1.680638   -1.179512   -2.107522
H      -3.485569   -2.361157   -1.245169
H      -5.749523   -2.529915   -1.300439
