13

N       0.136568    1.122738   -0.642711
C       0.080336    0.050825    0.173749
O       0.958662   -0.352533    0.896457
C      -1.287352   -0.727116    0.078923
O      -2.249999    0.118690   -0.538133
C      -1.070175   -1.951705   -0.694622
C      -0.925690   -2.936803   -1.365033
C      -1.720187   -1.067156    1.454854
N      -2.122814   -1.314100    2.508192
H       0.965094    1.694301   -0.623443
H      -0.684257    1.428889   -1.136815
H      -2.990709   -0.426162   -0.828719
H      -0.784412   -3.815752   -1.945933
