20

C      -1.831421    0.065505    1.896373
C      -0.833304   -0.713118    1.079608
O      -0.087770    0.018712    0.104238
C       0.633905   -0.570565    1.192551
C       1.347559    0.365152    2.146365
C       1.720498    1.712658    1.554600
C       1.021536    0.292245    3.624260
C       2.318643   -0.276489    3.108860
H      -1.395704    0.986591    2.287560
H      -2.697024    0.326756    1.278413
H      -2.192598   -0.535287    2.738186
H      -1.201571   -1.673247    0.709480
H       1.229730   -1.432473    0.881738
H       0.834113    2.255104    1.215016
H       2.241866    2.327117    2.295293
H       2.381134    1.593096    0.688853
H       1.052534    1.212440    4.198895
H       0.259872   -0.408223    3.948468
H       2.420417   -1.357501    3.084848
H       3.241082    0.250767    3.328148
