17

O      -0.198637   -0.014009    0.114594
C      -0.063528    1.171099   -0.017017
C      -1.224127    2.171735   -0.265430
N      -0.627806    3.498056   -0.058916
C       0.653968    3.362729    0.421791
N       1.361328    4.109424    1.170367
C       2.608815    3.358545    1.432348
C       2.318386    1.858453    1.091755
C       1.205879    2.008425    0.047086
H      -1.620269    2.044481   -1.280583
H      -2.036262    1.952775    0.438144
H      -1.199431    4.229603    0.337895
H       3.424487    3.753844    0.810554
H       2.909879    3.495274    2.475314
H       3.194413    1.319489    0.727002
H       1.942067    1.332486    1.974718
H       1.606788    2.043655   -0.977858
