17

C      -0.021604    1.506183    0.047202
C      -0.051302    0.014413    0.008020
C      -1.099105   -0.820336    0.048038
C      -0.721767   -2.289030   -0.000583
C       0.812627   -2.261669   -0.163977
C       1.204215   -0.778363   -0.109837
O       2.326037   -0.332423   -0.158218
C      -1.147686   -2.968501    1.296556
O      -2.052117   -3.752704    1.396070
H       0.593447    1.852224    0.884925
H       0.446910    1.903320   -0.859732
H      -1.022451    1.933058    0.143422
H      -2.138423   -0.517361    0.124753
H      -1.240015   -2.805186   -0.814774
H       1.344415   -2.810563    0.620455
H       1.129131   -2.693118   -1.117577
H      -0.543052   -2.657661    2.180887
