17

C      -0.074074    1.501137    0.046207
C       0.002744    0.012285   -0.014076
C       0.900292   -0.972763   -0.814535
C      -0.179365   -1.992786   -0.823910
N       0.841259   -2.001813    0.283262
C      -0.065127   -1.049569    1.061251
C      -1.119227   -1.047727   -0.023802
C      -2.601817   -0.887022    0.024299
H       0.874656    1.938701    0.378982
H      -0.317406    1.933620   -0.931561
H      -0.848816    1.821687    0.751316
H       1.776843   -0.843145   -1.439855
H      -0.352745   -2.855105   -1.458349
H      -0.124160   -0.997006    2.142495
H      -2.884368   -0.101464    0.733678
H      -3.010835   -0.611069   -0.954904
H      -3.095500   -1.812222    0.344566
