14

N       0.010548    1.389995    0.131776
C      -0.064042    0.017900    0.044520
C      -1.211777   -0.731269    0.019944
C      -1.158490   -2.153513   -0.011486
C       0.046201   -2.776810   -0.020765
N       1.193575   -2.020382   -0.006823
C       1.247727   -0.638071    0.014705
O       2.313982   -0.027476   -0.000706
H       0.931330    1.743604   -0.093147
H      -0.761396    1.924376   -0.232766
H      -2.177692   -0.234769    0.031051
H      -2.069509   -2.736975   -0.024483
H       0.181646   -3.849468   -0.039830
H       2.098837   -2.468260   -0.030610
