14

C      -0.017611    1.519899   -0.043457
C       0.051073    0.025762    0.048362
C      -0.825821   -0.824378    0.923287
C       0.679658   -0.851387    1.122914
N       1.390953   -1.898910    0.424108
C       1.178873   -1.684115   -0.811554
O       0.445515   -0.601525   -1.177510
H       0.936789    1.935388   -0.380980
H      -0.797847    1.836261   -0.743724
H      -0.252250    1.944171    0.936541
H      -1.404730   -0.295820    1.672958
H      -1.301720   -1.704738    0.504093
H       1.118020   -0.491516    2.046203
H       1.539171   -2.288395   -1.635140
