14

O      -0.037832    1.399412    0.010497
C      -0.038006   -0.000536    0.002488
C      -1.473800   -0.489867    0.013764
O      -2.443003    0.214522    0.027270
C      -1.583541   -2.031306    0.006019
O      -0.623533   -2.756839   -0.007565
O      -2.875983   -2.427483    0.016543
C      -3.136696   -3.783437    0.011271
N      -4.339188   -4.141849    0.021453
H       0.876276    1.697563    0.003403
H       0.452986   -0.435930   -0.884168
H       0.470236   -0.445996    0.874298
H      -2.231398   -4.390088   -0.001423
H      -4.398993   -5.159326    0.016166
