17

C       0.089140    1.651989    0.010158
C       0.078016    0.123685   -0.021638
C       0.758156   -0.542789   -1.216890
C       2.246625   -0.483109   -1.261068
C       1.564306   -1.753620   -0.746118
C       1.446924   -1.835825    0.730926
O       1.761546   -2.734915    1.465991
C       0.739518   -0.521007    1.198941
O       0.719281   -0.119894    2.330435
H       1.107958    2.040163   -0.083467
H      -0.507843    2.066868   -0.806913
H      -0.319934    2.007161    0.959494
H      -0.966034   -0.225616    0.010282
H       0.212405   -0.605886   -2.151187
H       2.741335   -0.581312   -2.220282
H       2.777076    0.145782   -0.552100
H       1.659029   -2.665307   -1.321258
