16

C      -0.016863    1.497486    0.057476
C      -0.001114    0.008660   -0.044557
C      -0.038417   -0.795247   -1.169285
C       0.001862   -2.133209   -0.685869
C       0.062228   -2.106006    0.708387
N       0.059768   -0.781324    1.092139
C       0.099806   -3.450108    1.127578
N       0.065200   -4.259486    0.067529
N       0.006118   -3.451834   -1.023621
H       0.888559    1.886169    0.540360
H      -0.076976    1.940282   -0.939006
H      -0.875915    1.860629    0.635476
H      -0.087964   -0.441084   -2.186841
H       0.095883   -0.428266    2.031563
H       0.149099   -3.873584    2.119034
H      -0.027959   -3.876924   -1.932472
