21

C      -0.079556    1.601946    0.001276
C       1.434636    1.261788    0.012495
C       1.213338    0.015460    0.923394
C       1.909140   -0.983573   -0.021089
C       1.250659   -2.375190   -0.021118
C      -0.206958   -2.330104   -0.543030
C      -1.002157   -1.088870   -0.060549
C      -0.028639    0.060844   -0.033368
C       1.247057    0.055765   -0.960461
H      -0.486244    2.064313    0.907704
H      -0.467605    2.106434   -0.890813
H       2.285331    1.944572    0.040548
H       1.163041    0.007009    2.015583
H       3.003638   -1.024998    0.005436
H       1.824238   -3.074166   -0.640763
H       1.280981   -2.779047    1.000265
H      -0.170382   -2.292652   -1.638135
H      -0.733765   -3.254208   -0.284427
H      -1.845200   -0.901979   -0.736301
H      -1.426901   -1.249840    0.938679
H       1.241595    0.104488   -2.051996
