20

C       0.760427   -0.326412   -1.306254
C      -0.078843    0.280342   -0.184586
O      -0.375168    1.649835   -0.444464
C      -1.465685   -0.383999   -0.022783
C      -1.354521   -1.837383    0.100550
N      -1.283309   -2.980790    0.259256
C      -2.220021    0.175819    1.222461
C      -3.684471   -0.252701    1.263404
O      -1.530188   -0.159197    2.415290
H       1.713768    0.206159   -1.391819
H       0.981822   -1.379961   -1.114256
H       0.238315   -0.243646   -2.264859
H       0.443404    0.176148    0.776401
H       0.449142    2.144534   -0.413664
H      -2.046987   -0.153766   -0.924454
H      -2.149557    1.263291    1.146505
H      -4.225977    0.105875    0.382118
H      -3.777194   -1.344535    1.295822
H      -4.162868    0.159693    2.155313
H      -1.631145   -1.107923    2.562857
