17

C      -0.150884    1.386961   -0.149303
C       1.255538    0.970080    0.157190
C       0.168192   -0.088839    0.041524
C      -0.290721   -0.781285    1.209238
C      -0.677519   -1.365703    2.192651
C      -1.138370   -2.082674    3.347076
C      -2.033219   -1.407682    4.336027
N      -2.571043   -2.460370    3.470438
H      -0.721520    1.871585    0.633746
H      -0.389152    1.715169   -1.154722
H       1.994071    1.008604   -0.635514
H       1.642430    1.169496    1.149161
H       0.190424   -0.684056   -0.867091
H      -0.468763   -2.854214    3.719296
H      -1.954124   -1.672208    5.386789
H      -2.300702   -0.373721    4.139538
H      -3.081359   -2.036950    2.698758
