18

C      -0.152567    1.640949   -0.112698
C       0.018956    0.123930   -0.027644
C      -1.345739   -0.583084    0.034625
O      -1.954737   -0.207227    1.259976
C       0.885878   -0.451350   -1.170146
O       1.655394   -1.500117   -0.577553
C       1.642762   -1.361640    0.788020
O       2.250036   -2.082623    1.527446
N       0.848237   -0.277252    1.105085
H       0.819198    2.137304   -0.056521
H      -0.635954    1.920009   -1.055460
H      -0.780617    2.000279    0.705817
H      -1.957718   -0.282036   -0.830389
H      -1.190748   -1.670965   -0.018922
H      -2.742026   -0.742439    1.392642
H       0.293146   -0.869360   -1.988572
H       1.562743    0.310555   -1.572996
H       0.443343   -0.267169    2.029310
