18

C       0.006492    1.479085   -0.082455
N      -0.030900    0.040547    0.135997
C       0.814263   -0.395928    1.246695
C      -1.301699   -0.530974    0.098711
N      -2.436882    0.168644    0.064511
N      -3.377391   -0.769517   -0.015539
N      -2.950913   -2.034340   -0.052268
C      -1.631016   -1.912458    0.022180
N      -0.762299   -3.004910    0.066258
H       1.047521    1.787554   -0.219236
H      -0.561418    1.730015   -0.980503
H      -0.420197    2.050049    0.757779
H       0.524352    0.071338    2.202778
H       0.749100   -1.479626    1.363697
H       1.854215   -0.126987    1.035796
H      -4.350026   -0.538503   -0.113390
H      -1.246072   -3.865723   -0.159144
H       0.031679   -2.882279   -0.551856
