16

C      -0.090760    1.568982    0.035059
C       0.068982    0.080539   -0.004499
C       0.126710   -0.801537   -1.073378
C       0.133572   -1.332023   -2.504342
C       0.311502   -2.757482   -1.836734
N       0.277921   -2.031322   -0.560913
N       0.333068   -2.106026    0.771056
C       0.204250   -0.807662    1.103073
H      -0.092670    1.927132    1.068473
H       0.722043    2.085423   -0.488332
H      -1.029973    1.895744   -0.425821
H      -0.795882   -1.210359   -3.065526
H       0.974011   -1.018716   -3.128129
H      -0.519754   -3.453498   -1.975762
H       1.260593   -3.260695   -2.038621
H       0.211108   -0.529907    2.148481
