21

C      -1.836112    0.212174    1.780580
C      -0.872657   -0.691456    1.055723
O      -0.025277   -0.094148    0.069416
C       0.591608   -0.659131    1.235049
C       1.317999    0.297520    2.156607
C       1.586023    1.679275    1.588854
C       1.082709    0.165728    3.656908
C       2.376988   -0.303965    3.045807
O       2.616024   -1.675297    2.910096
H      -1.342951    1.110225    2.156744
H      -2.646616    0.517746    1.110389
H      -2.286512   -0.315430    2.628595
H      -1.303050   -1.642401    0.732445
H       1.131999   -1.583476    1.037923
H       0.655721    2.206618    1.362114
H       2.157331    2.284256    2.299945
H       2.157228    1.614569    0.657477
H       1.081965    1.065026    4.264676
H       0.394250   -0.607565    3.982823
H       3.271379    0.294671    3.220383
H       2.742523   -2.046757    3.788991
