18

C      -0.087008    1.182087    0.351190
C       1.159035    0.454741   -0.040386
N      -0.120147    0.078335   -0.612571
C      -0.702882   -1.129392   -0.250950
N      -0.052396   -2.190946    0.042293
C      -1.009455   -3.294636    0.225787
C      -2.406866   -2.696057    0.092527
N      -2.672432   -1.655644    1.108797
C      -2.195729   -1.268594   -0.251599
H      -0.487373    0.989889    1.342905
H      -0.300138    2.165805   -0.056505
H       1.857364    0.919274   -0.729877
H       1.593489   -0.235429    0.676002
H      -0.829574   -4.064709   -0.535120
H      -0.853368   -3.758302    1.206063
H      -3.234595   -3.275114   -0.302012
H      -3.677987   -1.494387    1.144082
H      -2.828193   -0.677830   -0.903397
