15

C       0.021050    1.398690    0.163245
N      -0.022828   -0.010817   -0.172792
C      -1.222572   -0.676369   -0.063232
C      -2.501987   -0.197684    0.006040
O      -3.345997   -1.280215    0.045819
C      -2.526663   -2.355402    0.012413
N      -1.257350   -2.056438   -0.051214
C      -3.112591   -3.637823    0.050884
C      -3.616405   -4.729584    0.083915
H       1.045861    1.760734    0.060465
H      -0.602540    1.966254   -0.536816
H      -0.330917    1.616610    1.184238
H       0.754254   -0.564763    0.155467
H      -2.960809    0.773486    0.024655
H      -4.056256   -5.696109    0.111490
