13

N      -0.117483    1.476819    0.062552
C      -0.026346    0.218790    0.040110
C      -1.260437   -0.673206    0.108544
C      -2.515800    0.063199    0.199826
N      -3.542555    0.584588    0.273422
N       1.156639   -0.550254   -0.046823
C       2.441638   -0.060699   -0.123849
O       2.749021    1.107585   -0.128476
H       0.802815    1.914419    0.008529
H      -1.295824   -1.319824   -0.778440
H      -1.181862   -1.342946    0.975367
H       1.064963   -1.555604   -0.054045
H       3.182337   -0.880353   -0.182713
