18

C      -0.074425    1.517451    0.049461
C       0.007929    0.018494   -0.008120
C      -0.037701   -0.687903   -1.139242
C       0.085203   -2.190819   -1.132733
O       0.868859   -2.680562   -0.049736
C       0.519339   -2.166615    1.202397
C       1.474049   -1.179325    1.817485
C       0.122999   -0.720424    1.280934
H       0.820430    1.942283    0.521260
H      -0.176899    1.953836   -0.947871
H      -0.929635    1.844091    0.655011
H      -0.155493   -0.199942   -2.103321
H      -0.914731   -2.659510   -1.127662
H       0.593699   -2.538467   -2.037835
H       0.020173   -2.886941    1.848538
H       1.624199   -1.192188    2.891750
H       2.350165   -0.940029    1.225521
H      -0.614513   -0.450706    2.033363
