20

C      -0.108511    1.517023    0.079574
C      -0.033416    0.030854   -0.047770
C       0.129832   -0.797012   -1.133235
C       0.329006   -0.727868   -2.622042
C       0.022384   -2.194352   -3.057065
C       0.327110   -3.099221   -1.823516
C       0.129065   -2.144316   -0.679995
C      -0.034457   -2.129758    0.680750
N      -0.129404   -0.801964    1.052531
H       0.736628    1.933338    0.643389
H      -0.095891    1.974745   -0.912440
H      -1.027375    1.845830    0.581989
H      -0.319289   -0.008673   -3.134296
H       1.362575   -0.455859   -2.878405
H      -1.043182   -2.274318   -3.297542
H       0.579648   -2.494890   -3.948892
H      -0.321120   -3.981173   -1.794685
H       1.360670   -3.470490   -1.860646
H      -0.100256   -2.914242    1.417734
H      -0.295006   -0.483390    1.991669
