20

C      -0.075146    1.529776   -0.068261
C       0.076905    0.015106    0.010155
C       1.065815   -0.625651   -0.986821
N       2.340484    0.091654   -0.616781
C       2.276500   -0.758567    0.600694
C       1.491908   -1.882822   -0.077902
O       0.570927   -2.022538    1.001989
C       0.822505   -0.590100    1.234932
C       0.549361   -0.129497    2.635603
H       0.895219    2.027592   -0.032185
H      -0.568246    1.818599   -1.002910
H      -0.694715    1.899761    0.755583
H      -0.900380   -0.474220   -0.042342
H       0.803900   -0.684925   -2.042434
H       3.094667   -0.274799   -1.197849
H       3.141177   -0.859018    1.255868
H       1.868285   -2.807225   -0.516427
H       1.134386   -0.707486    3.356532
H       0.809014    0.927922    2.744766
H      -0.511353   -0.249117    2.880694
