17

O      -0.067997   -0.029557   -0.216323
C      -0.001657    1.179651   -0.131802
N       1.147583    1.900361   -0.027387
C       1.158225    3.349782    0.065530
C       1.858492    3.809828    1.351078
C       3.146919    3.053669    1.548211
C       3.403515    1.903806    0.928127
C       2.433678    1.217854    0.007487
H      -0.896662    1.833821   -0.127710
H       1.685173    3.769619   -0.802984
H       0.124869    3.706066    0.025017
H       2.052609    4.887867    1.295148
H       1.195334    3.662261    2.214659
H       3.881674    3.482047    2.224318
H       4.353227    1.396075    1.071509
H       2.241848    0.188844    0.327300
H       2.860927    1.146024   -1.006554
