18

C       0.022399    1.484837   -0.207079
O       1.426484    1.586787    0.099457
C       1.477238    0.208608    0.516421
C       0.024323   -0.049925    0.031889
C      -0.970365   -0.654001    0.966427
C      -1.256998   -0.249807    2.256749
N      -2.230459   -1.076435    2.754907
C      -2.579699   -2.008432    1.812402
C      -1.815695   -1.771131    0.694637
H      -0.598400    2.044523    0.505594
H      -0.204287    1.826369   -1.224093
H       2.273981   -0.347649    0.008357
H       1.607511    0.109465    1.602582
H       0.013954   -0.597530   -0.913205
H      -0.851348    0.550954    2.854576
H      -2.627810   -1.007702    3.675113
H      -3.333375   -2.751651    2.016303
H      -1.849409   -2.331976   -0.227596
