21

C      -0.232880    1.549933    0.171903
C       0.145395    0.091848   -0.117628
C       0.778120   -0.583315    1.084633
C       0.004472   -1.274166    2.201021
C      -1.369350   -1.758899    1.863088
C      -1.343509   -2.717915    0.936422
C       0.077604   -3.079253    0.527111
O       0.291902   -3.125931   -0.879315
C       0.936561   -2.073660    1.306952
H       0.643216    2.132330    0.477727
H      -0.662738    2.032230   -0.711333
H      -0.968253    1.608342    0.980923
H      -0.751803   -0.450239   -0.434821
H       0.851968    0.060669   -0.957985
H       1.635243   -0.025066    1.459125
H       0.250840   -1.036254    3.230107
H      -2.264020   -1.337043    2.308601
H      -2.202178   -3.197053    0.479739
H       0.320124   -4.097150    0.858611
H       0.106385   -2.249687   -1.231348
H       1.898551   -2.417024    1.668597
