21

C       0.078823    1.476607   -0.019231
O      -0.210087    0.102368   -0.152154
C       0.588280   -0.559985   -1.145901
C       2.057346   -0.635210   -0.761072
C       2.512901   -1.340489    0.272320
C       1.623642   -2.196863    1.138769
C       1.042012   -3.391493    0.364930
C       0.135558   -3.060310   -0.791131
C      -0.065147   -1.898464   -1.414578
H       1.103480    1.654036    0.337001
H      -0.054238    2.012910   -0.973001
H      -0.624300    1.882858    0.712333
H       0.517718    0.029253   -2.074427
H       2.751222   -0.061272   -1.369895
H       3.578271   -1.332556    0.492041
H       2.180708   -2.570669    2.003306
H       0.794007   -1.591020    1.518694
H       1.858873   -4.032341   -0.002116
H       0.475981   -4.022125    1.063916
H      -0.434191   -3.914451   -1.156604
H      -0.803719   -1.879541   -2.212293
