25

C       0.171552    1.549971    0.050255
C       0.004050    0.028268   -0.011746
C      -1.455267   -0.466082   -0.044342
C      -2.186453   -0.017136   -1.318128
C      -1.496827   -1.995262    0.141005
C      -2.889638   -2.606705    0.257341
C      -3.685247   -2.974939   -1.019551
O      -3.850819   -4.337695   -0.581726
C      -2.980476   -4.122902    0.546914
H       1.227977    1.821551    0.140974
H      -0.215694    2.045026   -0.845313
H      -0.353535    1.970340    0.915637
H       0.532237   -0.363407   -0.892359
H       0.501670   -0.415850    0.859990
H      -1.975201   -0.018451    0.816992
H      -3.236467   -0.324347   -1.311480
H      -2.171972    1.070780   -1.427863
H      -1.717220   -0.447593   -2.211186
H      -0.956569   -2.480684   -0.685042
H      -0.937999   -2.245910    1.053450
H      -3.496431   -2.026003    0.959511
H      -4.648550   -2.472866   -1.170242
H      -3.104884   -2.913700   -1.950744
H      -2.027573   -4.660958    0.437023
H      -3.448393   -4.422164    1.492379
