16

C      -0.023034   -1.227005   -0.081779
C      -0.037403   -0.028421    0.008986
C      -0.015643    1.424195    0.117420
C       1.408444    2.011322   -0.047343
C       1.415395    3.503736    0.042667
C       2.012951    4.337632    0.959396
N       1.671563    5.581066    0.545452
N       0.906199    5.539920   -0.559302
N       0.750942    4.284874   -0.863250
H      -0.028138   -2.285427   -0.164320
H      -0.666684    1.870171   -0.642805
H      -0.423219    1.730326    1.088887
H       2.068284    1.589205    0.716149
H       1.803085    1.697662   -1.019314
H       2.625872    4.157852    1.826429
H       1.914952    6.473720    0.944039
