19

C       0.157531    1.272364    0.359613
O       0.014360   -0.124337    0.250041
C      -1.306327   -0.514801   -0.051785
C      -1.327466   -2.033032   -0.144534
C      -2.690302   -2.597504   -0.480228
O      -3.668299   -1.903425   -0.646736
C      -2.798227   -4.120430   -0.581789
C      -3.894620   -4.645832    0.336070
O      -3.770124   -5.608982    1.043629
H       1.205149    1.476164    0.593365
H      -0.104361    1.784485   -0.579690
H      -0.473614    1.685911    1.161905
H      -2.008287   -0.171051    0.724056
H      -1.643181   -0.070402   -1.001604
H      -0.607250   -2.377988   -0.898820
H      -0.987359   -2.479174    0.800131
H      -3.111179   -4.345060   -1.610616
H      -1.861984   -4.641728   -0.374315
H      -4.832213   -4.054059    0.296757
