18

O      -0.129982    1.422348   -0.045219
C      -0.016919    0.037479    0.012000
C       0.285970   -0.781225    1.303390
N      -0.420384   -1.916845    0.589387
C      -1.286886   -0.835796   -0.029540
C       0.537908   -2.150444   -0.558664
C       0.878000   -0.684983   -1.016006
C       1.689801   -2.945050   -0.162796
C       2.656338   -3.587904    0.149400
H       0.749198    1.802781   -0.144002
H       1.319713   -0.989932    1.589983
H      -0.301111   -0.458855    2.165145
H      -2.054777   -0.522568    0.679916
H      -1.733611   -1.086834   -0.996292
H      -0.012991   -2.685878   -1.338037
H       0.578354   -0.479579   -2.046754
H       1.938013   -0.443531   -0.899444
H       3.500651   -4.168599    0.428116
