20

C       0.077042    1.533109    0.111166
C      -0.080228    0.047590   -0.026916
C      -0.991438   -0.763515    0.806723
N       0.470013   -0.931445    1.004955
C       1.003661   -1.769160   -0.138648
C       0.318044   -3.084414   -0.501564
O      -0.774873   -2.749354   -1.360026
C      -0.425426   -1.579900   -2.105730
C       0.500458   -0.762291   -1.203409
H       1.098341    1.849395   -0.129121
H      -0.606201    2.062585   -0.564040
H      -0.144155    1.851234    1.134050
H      -1.448127   -0.256388    1.652080
H      -1.583244   -1.567021    0.384220
H       2.083030   -1.870610   -0.022928
H       1.029316   -3.744715   -1.023114
H      -0.087465   -3.622377    0.360577
H       0.095026   -1.860298   -3.035415
H      -1.357641   -1.071483   -2.369904
H       1.272234   -0.221813   -1.752736
