18

C       0.057179    1.720933   -0.143093
C       0.167381    0.239292    0.030580
C       0.822203   -0.798607   -0.779339
C       1.825337   -1.547638    0.132491
O       3.123759   -0.995338    0.004812
C       1.050466   -1.494654    1.451428
C       0.032434   -0.619142    1.297502
C      -1.277876   -1.170219    0.755589
N      -0.729880   -0.753184   -0.621806
H       0.944129    2.231554    0.247926
H      -0.042723    1.968983   -1.203695
H      -0.815653    2.118727    0.385679
H       1.063039   -0.655605   -1.829038
H       1.946039   -2.604331   -0.131277
H       3.092366   -0.100337    0.359720
H       0.925216   -2.411603    2.021326
H      -1.477232   -2.233708    0.910596
H      -2.186775   -0.578742    0.894205
