16

O       0.277358    1.103730    0.708711
C       0.021227    0.035545   -0.189145
C      -1.405723   -0.466000   -0.140721
C      -2.133036   -0.459623    1.046913
N      -3.389248   -0.906596    1.158926
C      -3.971292   -1.390233    0.068319
O      -5.236455   -1.844091    0.188696
C      -3.349230   -1.446913   -1.183729
C      -2.052939   -0.971937   -1.274089
H      -0.333629    1.816846    0.493619
H       0.278806    0.305700   -1.225675
H       0.717584   -0.757211    0.110084
H      -1.680521   -0.063967    1.951747
H      -5.475442   -1.715292    1.117384
H      -3.883790   -1.843603   -2.037696
H      -1.536620   -0.990288   -2.230154
