21

C      -0.025591    1.486364   -0.036155
C       0.023182   -0.017625   -0.048349
C       0.699375   -0.952158   -1.088153
C       0.060584   -1.903540   -0.047113
C       0.615038   -0.957640    1.065274
C      -0.038101   -0.967249    2.445557
C      -1.538706   -0.995383    2.341213
C      -2.094418   -1.008928    1.130795
C      -1.212935   -0.996079   -0.080744
H       0.979476    1.914251    0.052998
H      -0.475145    1.875551   -0.956605
H      -0.623168    1.849035    0.807590
H       0.263141   -0.960377   -2.091909
H       1.792927   -0.929550   -1.127002
H       0.071511   -2.994767   -0.045744
H       1.708376   -0.933969    1.138010
H       0.321444   -1.831504    3.023322
H       0.287652   -0.085397    3.017293
H      -2.130536   -1.003973    3.251913
H      -3.171995   -1.027113    0.996257
H      -1.766087   -1.006795   -1.024199
