20

C      -0.152409    0.410593   -0.930263
N      -0.019356   -0.482963    0.200966
C      -1.156786   -0.617472    1.133205
C      -0.152500   -0.697432    2.305924
C       0.883802   -0.101973    1.300721
C       2.261267   -0.725832    1.304994
O       3.153653   -0.298241    2.009279
C       2.513573   -1.948413    0.437429
O       3.806436   -2.439778    0.631169
H       0.798613    0.476333   -1.469101
H      -0.903305    0.018162   -1.623561
H      -0.454222    1.433629   -0.638291
H      -1.778111    0.290952    1.185566
H      -1.805991   -1.478800    0.946740
H      -0.358901   -0.100671    3.192880
H       0.085269   -1.721225    2.600141
H       0.992665    0.985002    1.442475
H       1.749673   -2.708118    0.665404
H       2.335791   -1.663825   -0.612551
H       4.212485   -1.830581    1.269351
