17

O       0.035175   -0.012194    0.004091
C       0.001567    1.190359    0.010471
C      -1.279859    2.032880    0.031715
C      -0.869102    3.536056    0.033565
C       0.024160    3.711412    1.256815
C       1.116191    2.948719    1.246747
C       1.269263    2.092847   -0.002032
C       1.083004    2.960841   -1.237879
C      -0.008814    3.723444   -1.211346
H      -1.882356    1.778055   -0.844846
H      -1.858743    1.769432    0.921538
H      -1.741856    4.189122    0.048407
H      -0.254795    4.378684    2.063305
H       1.841462    2.884958    2.048310
H       2.164897    1.475483   -0.017011
H       1.786594    2.904985   -2.059114
H      -0.309129    4.398505   -2.003556
