19

N      -0.160238    1.384824   -0.035628
C      -0.141118    0.015081   -0.051891
N      -1.108721   -0.763922    0.235048
C      -0.633570   -2.126786   -0.023498
C      -1.367965   -2.802597   -1.203555
C      -0.558829   -2.392322   -2.445534
C       0.898621   -2.463784   -1.954333
C       0.847370   -1.944073   -0.511409
O       1.043669   -0.508323   -0.467517
H       0.736608    1.823790    0.104660
H      -0.911681    1.774583    0.511650
H      -0.716068   -2.723692    0.890698
H      -1.338533   -3.892639   -1.082129
H      -2.415632   -2.496634   -1.239577
H      -0.746323   -3.031734   -3.312212
H      -0.809453   -1.366047   -2.735391
H       1.238480   -3.506651   -1.939245
H       1.606755   -1.894276   -2.561555
H       1.607851   -2.389095    0.134225
