14

C      -0.102212   -1.292707   -0.081341
C      -0.045000   -0.093987   -0.045847
C      -0.002463    1.363211    0.045174
C      -0.505912    1.901021    1.449454
N       0.654964    2.560202    2.043691
C       1.598292    2.443512    1.210516
O       1.400065    1.797987    0.033781
C      -0.698558    1.987216   -1.077140
C      -1.298913    2.518426   -1.970926
H      -0.148288   -2.353090   -0.127379
H      -1.328867    2.608134    1.321682
H      -0.847941    1.077281    2.080377
H       2.605686    2.823484    1.338754
H      -1.823175    2.979942   -2.771432
