18

C      -0.024991    1.385334    0.108157
O       0.026063   -0.027534    0.000692
C       0.628238   -0.569769   -1.084464
C       1.210638    0.159239   -2.119948
C       1.793858   -0.543612   -3.172941
N       1.832376   -1.871181   -3.256838
C       1.265454   -2.545859   -2.248484
C       0.650632   -1.975023   -1.140339
C       0.035106   -2.803026   -0.046601
H       0.980449    1.822035    0.145074
H      -0.580152    1.831879   -0.725734
H      -0.545294    1.598249    1.043010
H       1.219819    1.241190   -2.124280
H       2.253788    0.006870   -3.990956
H       1.300691   -3.631661   -2.323797
H       0.500854   -2.593662    0.922453
H      -1.032107   -2.584026    0.067039
H       0.147387   -3.869107   -0.259822
