16

C       0.026078   -1.215574   -0.007959
C       0.015145   -0.012645   -0.003764
C       0.011777    1.426871    0.012774
C      -0.300599    2.268083    1.313281
C       0.364169    3.400023    0.460729
C       1.334767    2.287686   -0.059555
C      -0.622475    3.476804   -0.713496
C      -0.855577    2.197582   -1.009442
H       0.034622   -2.277191   -0.013000
H      -1.352562    2.383738    1.580998
H       0.296960    1.952706    2.173379
H       0.726380    4.325210    0.905416
H       2.082774    1.974111    0.674246
H       1.778908    2.421275   -1.047769
H      -1.014038    4.375888   -1.167099
H      -1.481312    1.740316   -1.761367
