19

C       0.059170   -1.246539    0.009532
C       0.035688   -0.051021    0.133571
C       0.042343    1.399384    0.271482
C       1.356926    2.038796   -0.223100
C       1.365229    3.556216   -0.071449
C       1.761999    4.140272    1.279445
C       2.705999    4.250440    0.117932
C       0.359841    4.257092   -0.827321
C      -0.488118    4.821815   -1.468071
H       0.063995   -2.302830   -0.096257
H      -0.796727    1.830693   -0.287616
H      -0.120094    1.671132    1.322430
H       2.196839    1.619195    0.340565
H       1.513365    1.771851   -1.273595
H       1.247690    5.034251    1.610429
H       1.996400    3.433098    2.068187
H       3.589567    3.621317    0.108031
H       2.834135    5.219996   -0.347908
H      -1.233449    5.327094   -2.030599
