20

O      -0.118483    0.169356    0.673876
C      -0.019564    1.225747    0.087233
N       1.140637    1.765019   -0.380299
C       2.431761    1.138227   -0.231293
C       3.374651    1.054584   -1.467693
C       4.572575    1.496096   -0.575047
C       4.943593    2.990608   -0.701560
C       3.785006    3.352241    0.277209
C       3.553774    1.840859    0.574660
H      -0.890290    1.874296   -0.137235
H       1.084407    2.654746   -0.850613
H       2.235040    0.149001    0.184343
H       3.445711    0.067018   -1.928371
H       3.136497    1.778416   -2.254872
H       5.376287    0.768629   -0.461800
H       5.924947    3.217041   -0.276055
H       4.901296    3.418811   -1.708081
H       4.087293    3.941110    1.145417
H       2.932867    3.865005   -0.180331
H       3.679998    1.535348    1.613968
