16

O       0.079778    1.394462   -0.164205
C       0.036559    0.021472   -0.027352
C      -0.421468   -0.758229   -1.213495
C      -1.290568   -0.796055    0.043579
C      -1.063675   -1.933504    1.044666
C       0.374877   -1.750145    1.479178
C       0.950665   -0.684861    0.920891
C      -2.551903   -0.125790    0.019315
N      -3.573622    0.418983    0.028254
H      -0.101622    1.796673    0.693598
H      -0.826241   -0.177970   -2.035135
H       0.110619   -1.661998   -1.491007
H      -1.756825   -1.862531    1.891069
H      -1.229821   -2.916316    0.586649
H       0.864240   -2.449876    2.146367
H       1.968825   -0.347292    1.074420
