21

C      -0.065570    1.539514    0.007390
C       0.027894    0.010092   -0.007321
C       0.860424   -0.507189   -1.171269
C       2.262240   -0.745234   -0.674309
C       2.294788   -0.388132    0.799996
C       0.804650   -0.585184    1.214631
C       0.537232   -2.069944    1.253115
C       0.826268   -2.732407    0.128408
C       1.363372   -1.942889   -1.003847
H       0.923160    2.009139    0.020822
H      -0.589982    1.907051   -0.881332
H      -0.617237    1.889609    0.886585
H      -0.987170   -0.404935   -0.028062
H       0.656171   -0.151200   -2.174937
H       3.133357   -0.576337   -1.296278
H       2.965292   -1.022033    1.388827
H       2.608194    0.652568    0.933531
H       0.553341   -0.087185    2.153068
H       0.142059   -2.548811    2.142081
H       0.687935   -3.802864    0.016920
H       1.597165   -2.472418   -1.920415
