20

C      -0.233571    1.513080    0.058653
C       0.033966    0.030513    0.015608
C      -0.018821   -0.657932   -1.127779
C       0.175012   -2.144985   -1.314096
C       1.397620   -2.761991   -0.617352
C       1.349705   -2.713754    0.909560
O       1.480152   -1.413019    1.447076
C       0.322477   -0.604827    1.369036
H       0.641898    2.062175    0.429253
H      -0.494647    1.907746   -0.926628
H      -1.058234    1.748057    0.745122
H      -0.251582   -0.102170   -2.034652
H      -0.727871   -2.675780   -0.971822
H       0.244250   -2.354327   -2.386932
H       1.482555   -3.814523   -0.917945
H       2.309806   -2.255260   -0.952328
H       0.416414   -3.180724    1.271867
H       2.185957   -3.287833    1.323159
H       0.474962    0.186660    2.110218
H      -0.560312   -1.183741    1.697430
