19

C       0.221262    1.539296   -0.117364
C       0.042261    0.048825    0.049832
O       0.866087   -0.738508   -0.865638
C       1.335208   -1.586622    0.197130
C       2.693175   -1.171597    0.793112
N       2.007277   -0.150156    1.623411
C       2.358784   -0.064093    3.022111
C       0.674569   -0.679457    1.259518
H       1.245497    1.824241    0.132052
H       0.006417    1.829584   -1.150477
H      -0.468991    2.081796    0.538429
H      -1.011903   -0.238737   -0.078567
H       1.134410   -2.645024    0.019884
H       3.139514   -1.982729    1.390616
H       3.439431   -0.776230    0.096377
H       3.390996    0.288664    3.120863
H       1.710753    0.660763    3.525863
H       2.278890   -1.028164    3.561162
H       0.037895   -1.007326    2.084843
