19

O      -0.063935    1.445592    0.023018
C      -0.003597    0.026090    0.005934
C       0.675374   -0.584122    1.256421
C       0.010480   -1.958811    1.459110
C      -1.402173   -1.802451    0.879974
C      -2.163780   -0.552311    1.292196
C      -1.403669   -0.555120   -0.002526
C      -2.129823   -2.985128    0.528831
C      -2.720268   -3.995254    0.246823
H       0.835240    1.781839   -0.046506
H       0.515365   -0.316921   -0.903350
H       1.761176   -0.657690    1.147428
H       0.481131    0.080045    2.104348
H       0.534906   -2.733958    0.890714
H       0.001321   -2.276343    2.506640
H      -3.243500   -0.607827    1.224892
H      -1.795514    0.031380    2.128656
H      -1.962213   -0.543685   -0.930450
H      -3.248037   -4.881241   -0.004669
