15

C      -0.095177    1.421444   -0.447042
C      -0.089123   -0.023349   -0.099779
C      -1.056208   -0.983225   -0.009759
C      -2.545669   -0.950593   -0.216757
C      -2.979757   -0.177003   -1.377241
C      -3.347808    0.463324   -2.325004
N      -0.422283   -2.144175    0.372456
N       0.813468   -1.959442    0.513408
O       1.079468   -0.589569    0.214998
H       0.665331    1.636680   -1.203512
H      -1.072138    1.709764   -0.836214
H       0.131806    2.032119    0.433451
H      -2.882052   -1.988623   -0.317350
H      -3.044634   -0.561551    0.681611
H      -3.676968    1.015790   -3.170301
