22

C       0.127412    1.610920    0.111371
C       0.038134    0.085117   -0.011880
C      -1.421943   -0.425321    0.000204
C      -2.165539   -0.169085    1.306846
O      -3.417347   -0.834852    1.218886
C       0.749343   -0.457238   -1.237687
C       1.011454   -1.937599   -1.342540
N       1.093800    0.380489   -2.138490
O       1.720188   -0.253288   -3.226925
H       1.165955    1.945831    0.058534
H      -0.415171    2.102339   -0.700777
H      -0.292970    1.948945    1.062743
H       0.544942   -0.362515    0.857744
H      -1.975370    0.036909   -0.825663
H      -1.444223   -1.506604   -0.175275
H      -1.569517   -0.552558    2.152732
H      -2.304827    0.909907    1.468206
H      -3.925491   -0.624791    2.007687
H       0.428760   -2.379700   -2.157765
H       2.063761   -2.114186   -1.583903
H       0.763074   -2.456199   -0.414448
H       1.935781    0.493212   -3.795383
