19

C       0.037317    1.539865    0.003225
C       0.055646    0.004591    0.010543
C      -1.332515   -0.580405    0.036701
C      -2.327061   -0.380053    1.222959
C      -2.971380   -1.694201    0.775072
C      -3.017267   -1.694167   -0.760902
C      -1.754029   -2.118081    0.028091
C      -2.256136   -0.487536   -1.201149
O      -2.190761    0.142715   -2.221956
H       1.054886    1.940431   -0.021605
H      -0.500272    1.910232   -0.873425
H      -0.454892    1.935760    0.897952
H       0.577138   -0.357413   -0.884137
H       0.623838   -0.361799    0.875178
H      -1.826649   -0.494743    2.189232
H      -2.935701    0.531040    1.223344
H      -3.670578   -2.317511    1.318402
H      -3.693180   -2.326802   -1.319306
H      -1.194864   -3.035909   -0.069134
