15

O       0.166025    0.142119   -0.415827
C       0.113376    1.286873   -0.100730
O      -0.960602    1.986147    0.386562
C      -0.154548    3.190626    0.611353
C       1.066234    2.504720   -0.017464
O       2.164925    2.398326    0.835190
C       3.225877    1.619815    0.275262
C       4.355263    1.613360    1.191032
C       5.301988    1.590855    1.928717
H      -0.574574    4.045739    0.080717
H      -0.042802    3.393545    1.677306
H       1.347214    2.885587   -1.010907
H       2.881704    0.594010    0.084703
H       3.529043    2.048036   -0.694401
H       6.136994    1.570973    2.584881
