15

C       0.027915    1.574662    0.072109
C       0.080049    0.063848    0.065531
C       1.311679   -0.767425   -0.267715
C       2.515296   -0.158806    0.411265
O       3.626513    0.139230    0.129160
O       1.899674   -0.057741    1.655725
C       0.731293   -0.742821    1.154158
C       0.123467   -1.843570    1.920003
O       0.479050   -2.203017    3.011366
H       0.908116    2.004134    0.554032
H      -0.030386    1.957044   -0.951006
H      -0.857323    1.918170    0.615601
H      -0.817148   -0.418910   -0.321654
H       1.322397   -1.557572   -1.005085
H      -0.724829   -2.321558    1.379597
