17

C      -0.024669    1.580073   -0.022339
C       0.156254    0.062498   -0.090740
C       0.623723   -0.540804    1.246812
C       0.761723   -2.029478    1.201220
C       1.887252   -2.820990    1.211036
N       1.404791   -4.084190    1.127996
N       0.061522   -4.094937    1.070443
N      -0.327238   -2.854153    1.113757
H       0.912986    2.082335    0.242136
H      -0.358107    1.983565   -0.983326
H      -0.770487    1.856186    0.731400
H      -0.785516   -0.417767   -0.377994
H       0.883006   -0.193292   -0.871900
H       1.582045   -0.095603    1.539037
H      -0.097984   -0.275130    2.028874
H       2.939775   -2.601074    1.271125
H       1.906350   -4.957614    1.114363
