22

C      -0.138074    1.625546    0.016801
C      -0.036157    0.105623   -0.103461
O       0.979143   -0.414614    0.755738
C      -1.383059   -0.593934    0.138452
C      -1.309451   -2.083495   -0.049691
C      -1.518888   -2.743504   -1.355919
N      -2.540795   -2.945501   -0.307645
C      -1.948989   -3.983621    0.611817
C      -0.736478   -3.082413    0.956661
H       0.843444    2.083200   -0.133571
H      -0.832325    2.037763   -0.722491
H      -0.502276    1.914280    1.011127
H       0.311952   -0.151299   -1.111543
H       0.753686   -0.161775    1.658147
H      -1.727654   -0.361420    1.157511
H      -2.136610   -0.184512   -0.544938
H      -1.875159   -2.131485   -2.179664
H      -0.897703   -3.586095   -1.656083
H      -2.622310   -4.166564    1.451603
H      -1.739643   -4.935850    0.112333
H       0.271027   -3.454316    0.755433
H      -0.769504   -2.712803    1.983984
