19

C      -0.051146    1.481524   -0.240888
C       0.022254   -0.017684    0.073280
C       0.797363   -0.321958    1.360533
O      -1.311429   -0.592584    0.141185
C      -2.198486   -0.158828    1.050544
O      -3.291876   -0.633549    1.149588
C       0.699677   -0.727578   -1.095008
C       0.203708   -1.968464   -1.698794
O       0.032840   -0.700674   -2.347343
H       0.955562    1.872946   -0.416560
H      -0.644728    1.637748   -1.144395
H      -0.489550    2.053534    0.580935
H       0.370716    0.201247    2.220352
H       0.787792   -1.395736    1.566808
H       1.837651    0.002201    1.260704
H      -1.828116    0.662695    1.687631
H       1.769294   -0.514025   -1.149256
H       0.908831   -2.644084   -2.180492
H      -0.709778   -2.415147   -1.319258
