23

C      -0.132346    1.553132   -0.122917
C       0.035614    0.029039   -0.027913
C       0.735465   -0.527025   -1.275062
C       0.788802   -0.414651    1.243843
O       2.124226    0.086961    1.302720
C       0.050791   -0.082004    2.548164
O      -1.277372   -0.565262    2.452593
C       0.737589   -0.698146    3.763842
O      -0.093695   -0.387824    4.882566
H       0.835819    2.067533   -0.176108
H      -0.676833    1.818306   -1.034318
H      -0.693201    1.959412    0.723728
H      -0.962853   -0.415007    0.046060
H       1.763541   -0.157157   -1.339974
H       0.777396   -1.621244   -1.251293
H       0.206752   -0.231432   -2.186878
H       0.905806   -1.504648    1.196358
H       2.075836    1.049133    1.318211
H       0.049247    1.014170    2.690415
H      -1.612538   -0.573716    3.358467
H       0.814263   -1.786420    3.621725
H       1.747809   -0.287741    3.879219
H       0.186487   -0.921002    5.631218
