16

O       0.011788   -0.033543   -0.083083
C       0.011813    1.175707   -0.032319
N      -1.093289    1.986371    0.031255
C      -0.839260    3.415929    0.019325
C       0.685119    3.502856    0.001571
C       1.417696    2.948263    1.209050
C       0.751094    2.688474    2.451277
C       0.196627    2.500871    3.501948
C       1.212109    2.093764   -0.044211
H      -2.005612    1.587834    0.181806
H      -1.261177    3.891557   -0.875123
H      -1.264450    3.908502    0.902857
H       1.148086    4.312457   -0.548074
H       2.436001    3.312195    1.315754
H      -0.283618    2.312903    4.430183
H       2.083653    1.780060   -0.602743
