15

O      -0.090844   -0.022215    0.056470
C       0.003036    1.175952    0.004773
C       1.303290    1.946693   -0.017025
C       1.371963    2.859448   -1.247908
O       2.529105    3.699448   -1.217288
C       2.909330    4.153014    0.001546
N       2.464203    3.850284    1.144346
C       1.419893    2.840556    1.240019
H      -0.906796    1.823627   -0.010878
H       2.127243    1.228048   -0.043871
H       1.444854    2.286828   -2.175001
H       0.478072    3.495827   -1.302537
H       3.721981    4.867829   -0.109923
H       0.461780    3.341997    1.438352
H       1.626614    2.218549    2.116706
