20

C       0.005510    1.548865    0.022443
C      -0.003888    0.041324   -0.022448
C      -1.169264   -0.667057   -0.001246
N      -2.388679   -0.056899    0.140439
C      -1.221009   -2.174878   -0.055717
C       0.041059   -2.766423   -0.685563
C       1.284776   -2.171987   -0.025731
C       1.290438   -0.643705   -0.048607
O       2.352540   -0.037760   -0.061266
H       1.035302    1.895993   -0.073900
H      -0.582772    1.992736   -0.792638
H      -0.396174    1.939966    0.966848
H      -2.439318    0.943683    0.038763
H      -3.211899   -0.559170   -0.148251
H      -1.349597   -2.559886    0.966250
H      -2.114404   -2.488762   -0.611432
H       0.031571   -3.857410   -0.593040
H       0.050407   -2.536029   -1.757666
H       1.332754   -2.485535    1.027274
H       2.209204   -2.513719   -0.497891
