20

C      -0.200046    1.442854    0.065587
C      -0.047762   -0.037323   -0.091736
C       0.996876   -0.797787   -0.913088
C       0.163318   -2.069728   -0.607364
C       0.304791   -2.182609    0.915027
N      -0.469660   -0.905744    1.074818
C      -1.056867   -1.111432   -0.295326
C      -2.529663   -1.157457   -0.519805
O      -3.146188   -2.214670    0.202829
H       0.649737    1.861893    0.616231
H      -0.248452    1.938743   -0.909772
H      -1.108454    1.683294    0.624192
H       0.938476   -0.507085   -1.965585
H       2.042244   -0.785842   -0.583010
H       0.180755   -2.931525   -1.271509
H      -0.280134   -2.996789    1.349648
H       1.313668   -2.176655    1.345392
H      -2.962985   -0.181188   -0.250613
H      -2.756461   -1.337756   -1.576053
H      -2.919295   -2.071510    1.129102
