17

C      -0.043976    1.261660    0.057822
N       0.074451   -0.102653    0.582849
C      -0.967477   -1.004067   -0.143341
C      -0.108181   -1.336798   -1.313215
C       0.936597   -1.021256   -0.178306
N       1.457863   -1.990785    0.462289
C       0.701356   -3.182719    0.020230
C      -0.567166   -2.524673   -0.554873
O      -1.571322   -3.386774   -0.949777
H       0.828365    1.834037    0.384626
H      -0.112832    1.316299   -1.041536
H      -0.934368    1.729559    0.487741
H      -2.012516   -0.707160   -0.097980
H      -0.119305   -1.092003   -2.368577
H       1.180761   -3.816955   -0.739385
H       0.522934   -3.794649    0.910156
H      -2.110372   -2.974294   -1.632252
