16

C      -0.010480    1.402431   -0.031522
O       0.041474   -0.003818    0.065722
C       0.541363   -0.598068   -1.110729
C       0.580243   -2.045938   -0.973316
C       0.621355   -3.248491   -0.881059
C       0.670392   -4.694816   -0.769005
C       1.197915   -5.421335   -1.989986
O       0.311293   -5.267095    0.237316
H       0.987486    1.837745   -0.198173
H      -0.671048    1.731450   -0.849203
H      -0.406082    1.774094    0.915613
H      -0.084865   -0.333819   -1.981828
H       1.557695   -0.228472   -1.337149
H       2.214285   -5.083390   -2.219439
H       1.194322   -6.496215   -1.803660
H       0.578544   -5.189446   -2.863174
