17

C      -0.038604   -1.208361   -0.094365
C      -0.000718   -0.008689   -0.026922
C       0.018682    1.436547    0.054403
C      -0.280184    2.069211    1.442575
C       0.923182    1.580027    2.256156
O       1.999851    1.617472    1.292509
C       1.422161    2.101311    0.080403
C       1.025573    3.566218    0.297664
O      -0.110911    3.464160    1.185867
H      -0.063570   -2.268079   -0.157129
H      -0.631696    1.882794   -0.703317
H      -1.262954    1.897729    1.878179
H       1.136265    2.259728    3.087337
H       0.802902    0.558074    2.632233
H       2.099050    1.897727   -0.747672
H       1.834707    4.123678    0.780729
H       0.728183    4.081625   -0.624209
