20

C       0.020065    1.576497    0.037859
C       0.023349    0.046709    0.022805
C       0.767122   -0.572105   -1.189326
C       1.308367   -1.949923   -0.726658
C       2.577737   -2.397553   -1.453855
C       1.482143   -1.760951    0.771892
O       2.160748   -0.542172    1.120418
C       0.726557   -0.586938    1.212573
H       1.044719    1.957558    0.096363
H      -0.441454    1.980022   -0.869304
H      -0.535883    1.967429    0.896817
H      -1.015082   -0.314908    0.037220
H       0.125944   -0.653749   -2.071174
H       1.609897    0.071727   -1.459539
H       0.528283   -2.712954   -0.862920
H       3.390134   -1.686693   -1.271550
H       2.908399   -3.384221   -1.112003
H       2.414230   -2.457062   -2.534828
H       1.693599   -2.609039    1.420088
H       0.324785   -0.482205    2.218423
