19

O      -0.082577    1.424319    0.041753
C      -0.002250    0.010470   -0.013842
C      -1.380498   -0.589997   -0.223237
C      -1.602546   -0.667045   -1.732457
C      -0.349948   -0.103799   -2.393815
C       0.651818   -0.561706   -1.305546
C       0.326812   -2.065346   -1.158630
C      -1.177538   -1.896402   -0.947045
O      -2.017669   -2.967693   -0.679546
H       0.808001    1.766758    0.169514
H       0.487919   -0.385167    0.888594
H      -2.197844   -0.449092    0.470055
H      -2.597981   -0.585949   -2.148448
H      -0.138450   -0.552081   -3.370564
H      -0.376128    0.983882   -2.495572
H       1.699488   -0.301998   -1.464304
H       0.571967   -2.644366   -2.057152
H       0.819654   -2.531744   -0.299118
H      -2.131126   -3.469066   -1.494575
