11

N       0.018136   -1.161396   -0.003137
C       0.002022   -0.004086    0.003173
C      -0.017284    1.421843    0.010768
C      -1.217227    2.144022    0.030414
N      -1.240571    3.472935    0.037577
C      -0.053342    4.083813    0.024970
N       1.149995    3.505489    0.006028
C       1.162654    2.176429   -0.000994
H      -2.172826    1.626622    0.040422
H      -0.068063    5.170444    0.030786
H       2.131916    1.685241   -0.016388
