17

C      -0.122594    1.535998    0.229968
C       0.092686    0.033681    0.171663
O       1.134206   -0.485578    0.480286
C      -1.126283   -0.774064   -0.314722
C      -0.946056   -2.214969   -0.298128
C      -0.796255   -3.407091   -0.278927
C      -0.596010   -4.856869   -0.252492
C      -1.789971   -5.607872    0.141416
C      -2.762355   -6.234650    0.462096
H       0.807939    2.029434    0.511390
H      -0.468665    1.918108   -0.736682
H      -0.899675    1.777149    0.964475
H      -1.990183   -0.481596    0.298744
H      -1.367780   -0.420685   -1.327804
H      -0.262647   -5.200773   -1.241409
H       0.226500   -5.096856    0.435378
H      -3.623998   -6.785564    0.747259
