21

C      -0.116338    1.608876   -0.038026
C       0.067684    0.087816   -0.042419
C       0.877295   -0.449983   -1.203288
C       1.696934   -1.429030   -0.830222
C       1.586309   -1.721431    0.649459
C       2.914848   -2.020236    1.340837
O       3.388486   -3.251900    0.803675
C       0.833938   -0.481775    1.194931
O       1.810827    0.426982    1.694655
H       0.850394    2.119736   -0.027437
H      -0.657577    1.932367   -0.932606
H      -0.698068    1.944449    0.829433
H      -0.932703   -0.372831   -0.058716
H       0.755964   -0.077244   -2.215242
H       2.354657   -1.999117   -1.474919
H       0.955996   -2.611498    0.795170
H       3.623248   -1.203033    1.158816
H       2.763089   -2.092436    2.428714
H       4.279743   -3.396113    1.133644
H       0.139082   -0.755242    2.001523
H       1.349276    1.179030    2.076535
