18

C       0.019939    1.507532    0.002669
C       0.013906    0.052567    0.034517
C       0.002066   -1.150438    0.060405
C      -0.014240   -2.612938    0.091782
N      -1.347229   -3.194941    0.025370
C      -2.162256   -3.440748    1.103823
C      -3.366797   -3.908636    0.633885
C      -3.282330   -3.940060   -0.786104
C      -2.029369   -3.490185   -1.130169
H       0.588827    1.885422   -0.853780
H      -0.999223    1.901289   -0.075947
H       0.467848    1.924622    0.911157
H       0.570733   -3.014454   -0.743582
H       0.466579   -2.975723    1.007447
H      -1.810495   -3.259107    2.107163
H      -4.208143   -4.207240    1.240290
H      -4.046676   -4.267310   -1.474171
H      -1.560724   -3.352026   -2.091784
