14

C       0.023091    1.488110   -0.043695
C      -0.071703    0.000788    0.057042
C      -1.151805   -0.755005   -0.212189
C      -1.093690   -2.191659   -0.069527
N      -2.075540   -2.981935   -0.305367
C       0.242767   -2.614053    0.381470
F       0.418377   -3.915418    0.548789
N       1.264910   -1.892399    0.635813
O       1.115336   -0.523676    0.470744
H       0.806564    1.774005   -0.752836
H      -0.927494    1.907759   -0.375155
H       0.285976    1.921123    0.926747
H      -2.076487   -0.297775   -0.538545
H      -1.798343   -3.950127   -0.135394
