21

C       0.098381    1.526117    0.086513
C      -0.037306    0.003029   -0.006565
C      -1.486029   -0.520338   -0.066440
C      -2.209126   -0.058054   -1.341192
C      -1.492495   -2.052596    0.076630
C      -2.872507   -2.678736    0.242697
O      -2.685325   -4.063349    0.505472
H       1.147393    1.816962    0.201402
H      -0.282715    2.031328   -0.806212
H      -0.450197    1.919481    0.950120
H       0.509926   -0.361775   -0.886972
H       0.457078   -0.448305    0.862995
H      -2.022711   -0.100672    0.798748
H      -1.719743   -0.466757   -2.233947
H      -3.253580   -0.382961   -1.358187
H      -2.210159    1.031756   -1.432299
H      -1.001241   -2.510982   -0.791873
H      -0.899281   -2.338869    0.953577
H      -3.404780   -2.185448    1.073719
H      -3.478503   -2.532591   -0.664090
H      -3.551432   -4.476275    0.567241
