15

O       0.103924   -0.003616   -0.526147
C       0.051012    1.149573   -0.169383
C       1.267561    1.987307    0.019924
C       1.265016    3.490046   -0.120285
O       0.025158    4.050952    0.319776
C       0.322495    3.644641    1.697259
C      -0.749247    2.952209    2.385876
C      -1.626916    2.389550    2.983837
C       1.571691    2.896043    1.219295
H      -0.913628    1.658855    0.008630
H       2.172327    1.508725   -0.345589
H       1.849780    4.048489   -0.840889
H       0.613520    4.538810    2.262148
H      -2.402612    1.881971    3.503290
H       2.495207    2.801419    1.772451
