18

C      -0.145132    1.570342   -0.076270
C       0.081530    0.058349    0.010811
N       0.686266   -0.505713   -1.183874
C       0.045601   -0.691587   -2.422102
C       0.888209   -1.087914   -3.381256
C       2.264599   -1.229851   -2.778032
O       3.328264   -0.579448   -3.441347
C       2.046409   -0.734262   -1.316863
O       2.879797   -0.558202   -0.458848
H       0.804809    2.092950   -0.219105
H      -0.808848    1.828991   -0.907731
H      -0.603136    1.937468    0.847335
H       0.765001   -0.173965    0.831412
H      -0.863671   -0.462003    0.203366
H      -1.021994   -0.524377   -2.480008
H       0.635580   -1.327205   -4.402662
H       2.564760   -2.284504   -2.723653
H       3.110276    0.357326   -3.500497
