20

C       0.057059    1.543536    0.004815
C      -0.043163    0.056251    0.008430
C      -1.112477   -0.746050   -0.055992
C      -0.678937   -2.194638   -0.017759
C      -1.196180   -2.951064    1.221110
C      -1.031140   -2.968266   -1.303052
C       0.860853   -2.069004    0.082036
O       1.671655   -2.966233    0.141144
N       1.134828   -0.717190    0.090738
H       0.653974    1.901166   -0.843187
H      -0.936224    1.991349   -0.063226
H       0.538697    1.913068    0.918469
H      -2.139122   -0.415345   -0.125314
H      -2.280755   -3.087160    1.160760
H      -0.721391   -3.934984    1.280702
H      -0.972776   -2.404664    2.142099
H      -0.689238   -2.434216   -2.194443
H      -0.553503   -3.952480   -1.286960
H      -2.114460   -3.104493   -1.382589
H       2.071377   -0.351692    0.149327
