25

C       0.142383    1.599452   -0.255960
C       0.219878    0.070319   -0.184684
C      -1.143032   -0.592707    0.031515
C      -2.156767   -0.483619   -1.167711
C      -2.487628   -1.978100   -1.356448
C      -2.652616   -2.452455    0.116068
C      -1.130790   -2.134095    0.172360
C      -1.061206   -2.615680   -1.315984
C      -0.939341   -4.113889   -1.570576
H       1.132962    2.042105   -0.400165
H      -0.492459    1.930406   -1.084849
H      -0.277584    2.016191    0.666544
H       0.685010   -0.312222   -1.101748
H       0.887919   -0.218069    0.637988
H      -1.585723   -0.154133    0.935116
H      -3.038650    0.116132   -0.924438
H      -1.694464   -0.050665   -2.061513
H      -3.209554   -2.237804   -2.133038
H      -3.314887   -1.872636    0.766989
H      -2.886236   -3.512666    0.212286
H      -0.480312   -2.555076    0.942138
H      -0.319600   -2.099051   -1.935888
H      -1.642412   -4.711708   -0.984208
H      -1.117606   -4.340242   -2.627911
H       0.070256   -4.463924   -1.327424
