16

N      -0.060873   -1.181885   -0.078452
C      -0.028777   -0.027797   -0.027991
C      -0.031379    1.423979   -0.004228
C       0.110786    2.125945    1.385848
O       1.503256    1.631241    1.459840
C       1.351185    2.149441    0.082333
C       0.628992    3.373336    0.659309
C       0.007315    4.601272    0.089892
C       1.111840    4.687087    1.142463
H      -0.765706    1.843286   -0.695431
H      -0.520950    2.019441    2.266580
H       2.201170    2.071004   -0.594051
H       0.254042    4.884057   -0.928380
H      -1.002344    4.860228    0.391966
H       0.835402    5.002875    2.142835
H       2.091358    5.026676    0.822922
