20

C       0.347928    1.515703    0.572929
C       1.600162    1.446801   -0.321911
O       2.747975    0.951373    0.395710
C       2.454902   -0.429182    0.027100
C       2.230715   -1.369030    1.222285
C       0.823365   -1.984109    1.166042
C      -0.267087   -0.902608    1.159022
N      -0.014393    0.135673    0.155256
C       1.173134    0.016609   -0.711455
H       0.592137    1.639022    1.636281
H      -0.410228    2.257170    0.290067
H       1.839948    2.265240   -1.002756
H       3.239390   -0.801469   -0.644625
H       2.989174   -2.157314    1.246608
H       2.350162   -0.781123    2.139124
H       0.733408   -2.599149    0.260493
H       0.660332   -2.658197    2.013235
H      -1.248400   -1.368577    0.992295
H      -0.310943   -0.429415    2.150250
H       0.992497   -0.359699   -1.720901
