20

C       0.012758    1.462929   -0.038962
C       1.289955    0.708344    0.049915
C       1.855383    0.333648    1.415346
C       1.460293   -1.195551    1.501185
C       1.675463   -1.605871    2.954504
C       1.065637   -0.352384    3.650641
C       0.669145    0.470350    2.419604
C       0.029066   -0.560329    1.430578
N      -0.014695   -0.009391    0.050501
H      -0.330367    2.067440    0.792802
H      -0.296053    1.834476   -1.012470
H       1.920895    0.593005   -0.827758
H       2.859135    0.676469    1.672890
H       1.771627   -1.879110    0.709780
H       1.150125   -2.531244    3.209312
H       2.733194   -1.751415    3.193658
H       0.198970   -0.595484    4.273545
H       1.785877    0.175753    4.283059
H       0.208438    1.435372    2.627661
H      -0.867326   -1.124901    1.692994
