19

O       0.219180    1.125760    0.206523
C      -0.092706   -0.212357    0.277735
C      -0.839860   -0.810622    1.407284
C      -1.547900   -0.737956    0.042584
C      -2.546418    0.338494   -0.085530
O      -2.479736    1.416976    0.479289
C      -1.796626   -1.958365   -0.795312
C      -1.154719   -3.294084   -0.517695
C      -2.630810   -3.112062   -0.280852
H      -0.561249    1.620979    0.509214
H       0.668432   -0.816828   -0.205184
H      -0.562612   -1.793594    1.771674
H      -1.227795   -0.130786    2.159071
H      -3.385474    0.125677   -0.780494
H      -1.924628   -1.729469   -1.850959
H      -0.836928   -3.882822   -1.370736
H      -0.510514   -3.398335    0.348238
H      -2.968099   -3.061049    0.748961
H      -3.329885   -3.588469   -0.958660
