18

C      -0.159416    1.462759   -0.071845
C       0.183564   -0.031659   -0.053283
C       1.208415   -0.397241   -1.133202
O       1.110385   -1.753293   -1.580474
C       1.199557   -2.769817   -0.688924
N       1.369776   -2.816710    0.558599
C       1.554003   -1.698256    1.461355
C       0.636051   -0.474127    1.344212
O       0.310040    0.131392    2.336610
H       0.743289    2.074032    0.035073
H      -0.648637    1.736018   -1.010875
H      -0.819983    1.706529    0.760773
H      -0.726766   -0.607584   -0.277299
H       1.023376    0.192811   -2.033437
H       2.233505   -0.184450   -0.804255
H       1.086935   -3.703891   -1.239434
H       1.445875   -2.058308    2.487945
H       2.586300   -1.321061    1.389370
