19

C       0.129837    1.476192    0.125102
C       0.028488    0.027107    0.038695
C      -0.069552   -1.172068   -0.023529
C      -0.106976   -2.613474   -0.122323
C       1.170339   -3.256080   -0.627099
O      -0.730417   -3.306824    0.984523
C      -1.395723   -3.325640   -0.285368
C      -2.739481   -2.641236   -0.306416
O      -3.693085   -3.386685    0.433736
H       1.145478    1.816944   -0.103241
H      -0.552910    1.966313   -0.577517
H      -0.120207    1.827758    1.132028
H       2.004607   -3.005766    0.034542
H       1.060630   -4.342745   -0.656788
H       1.411371   -2.892320   -1.630398
H      -1.365590   -4.297114   -0.782792
H      -2.636053   -1.616449    0.073733
H      -3.117366   -2.588659   -1.333209
H      -3.343555   -3.464884    1.328866
