23

C       0.203604    1.590048    0.027577
C      -0.074666    0.074885   -0.039594
C       0.455870   -0.504332   -1.357212
C       0.186054   -2.003251   -1.571167
C       1.097901   -2.927792   -0.811303
C       1.507279   -2.799538    0.460470
C       2.437449   -3.829640    1.063706
C       1.096796   -1.742281    1.395657
C       0.436831   -0.589115    1.212643
H       1.280994    1.788868    0.030645
H      -0.233663    2.106519   -0.832779
H      -0.219471    2.031343    0.935749
H      -1.170670   -0.043234   -0.039684
H      -0.005194    0.058324   -2.177874
H       1.535464   -0.322415   -1.424416
H      -0.863875   -2.221756   -1.323591
H       0.284252   -2.227786   -2.639251
H       1.463673   -3.788322   -1.367787
H       3.368330   -3.366774    1.414569
H       1.979912   -4.310999    1.937477
H       2.697370   -4.609763    0.344219
H       1.373786   -1.957532    2.427452
H       0.238854   -0.010014    2.114629
