20

O      -0.072758    1.502163    0.148032
C       0.058248    0.092223    0.034630
C      -1.343305   -0.503819   -0.007864
C      -1.368644   -2.037878   -0.074335
C      -2.799848   -2.629415    0.055794
C      -2.831289   -3.879106   -0.858536
C      -1.677937   -3.630874   -1.802080
C      -0.889388   -2.644773   -1.379362
H       0.808698    1.886197    0.153700
H       0.617113   -0.179343   -0.875140
H       0.611946   -0.326161    0.891950
H      -1.877583   -0.168539    0.889739
H      -1.880479   -0.086074   -0.868115
H      -0.736000   -2.417850    0.744950
H      -3.070064   -2.849292    1.091987
H      -3.519109   -1.890990   -0.316205
H      -2.670927   -4.806591   -0.290083
H      -3.790644   -4.000216   -1.374299
H      -1.510678   -4.227727   -2.692404
H       0.018872   -2.321278   -1.876616
