19

C      -0.291906    1.448058   -0.005941
C      -0.316307   -0.033038   -0.333596
O      -1.272444   -0.662495    0.523841
C      -1.416193   -2.014929    0.313690
C      -2.736538   -2.600911    0.716794
N      -3.808810   -1.820140    1.262698
C      -2.409795   -2.493710   -0.774221
C      -3.078589   -1.506902   -1.566573
N      -3.610466   -0.697622   -2.201374
H       0.442227    1.959980   -0.634746
H      -1.273435    1.894407   -0.186514
H      -0.023911    1.608304    1.042210
H      -0.596126   -0.198205   -1.382290
H       0.671935   -0.490315   -0.171140
H      -0.506624   -2.609721    0.414485
H      -2.715060   -3.616030    1.102065
H      -3.680223   -1.730957    2.266857
H      -3.776989   -0.876601    0.887260
H      -2.177502   -3.413303   -1.300471
