19

C      -1.048379    1.106662   -0.240318
C      -0.159325   -0.119326   -0.426462
C       0.917618   -0.088714   -1.562199
C       2.007233   -0.586254   -0.555683
C       3.337688    0.152921   -0.481450
C       0.988203   -0.352274    0.547155
N       1.172507   -0.302405    1.798767
O      -0.027344   -0.025545    2.489900
H      -0.445654    2.015735   -0.143727
H      -1.710069    1.231393   -1.104445
H      -1.660551    1.014081    0.659173
H      -0.781333   -1.020784   -0.495158
H       0.731160   -0.720363   -2.432709
H       1.114705    0.932249   -1.903177
H       2.187181   -1.661474   -0.681339
H       3.180354    1.229705   -0.361244
H       3.928645   -0.194619    0.371068
H       3.924048   -0.006663   -1.392596
H       0.271441    0.003843    3.404795
