17

C       0.251589    0.942538   -0.542031
C       0.584999   -0.338124    0.178707
O       1.870004   -0.463105    0.780020
C       0.730939   -0.452039    1.655660
C       0.579037    0.712075    2.603754
C       0.408512   -1.796691    2.268492
O      -0.197648   -1.889763    3.314883
C       0.860465   -2.974573    1.545738
C       1.204102   -3.982008    0.983987
H       0.601877    1.823668   -0.003036
H       0.721931    0.940402   -1.530875
H      -0.830729    1.023330   -0.687088
H       0.270259   -1.242784   -0.344744
H       0.856833    1.649929    2.122993
H      -0.451345    0.777608    2.961452
H       1.220305    0.568376    3.477998
H       1.514126   -4.871458    0.491150
