12

C      -0.026948    1.481028   -0.012806
N      -0.005963    0.014023    0.001016
C      -0.006247   -0.658580    1.237049
O      -0.022912   -0.084910    2.294036
C       0.014168   -0.738721   -1.160932
O       0.030743   -1.945233   -1.217410
C       0.011149    0.065863   -2.396859
N       0.009780    0.650247   -3.393541
H       0.862593    1.876540   -0.507676
H      -0.919274    1.850913   -0.522262
H      -0.040067    1.800947    1.027918
H       0.010469   -1.747998    1.110780
