18

C      -0.042899    1.494356   -0.181840
C       1.517471    1.556564    0.075192
C       1.329581    0.279263    0.927712
C       1.777189   -1.160779    1.314593
C       0.366464   -1.088888    2.025684
C       0.714312    0.370340    2.363461
O      -0.636500   -0.919775    0.986365
C       0.086876   -0.034975    0.120072
H      -0.602105    2.048854    0.572217
H      -0.399894    1.771760   -1.175313
H       2.079160    1.383170   -0.846830
H       1.916315    2.440714    0.575672
H       1.909727   -1.881093    0.503790
H       2.584770   -1.238483    2.045431
H       0.027301   -1.829651    2.747745
H       1.486390    0.482232    3.128079
H      -0.126123    1.039818    2.553839
H       0.300274   -0.556994   -0.821386
