15

N       0.038639    1.338518    0.124158
C       0.012222   -0.027604    0.038063
N      -1.068538   -0.736941    0.014934
C      -0.707306   -2.169508   -0.005814
C       0.796585   -2.194582   -0.011837
C       1.963529   -2.917861   -0.035541
N       2.970043   -1.986970   -0.020640
N       2.540547   -0.704915    0.013376
C       1.222322   -0.855884    0.018839
H       0.870589    1.794839   -0.214265
H      -0.829350    1.802438   -0.096919
H      -1.141918   -2.671463    0.868022
H      -1.150544   -2.645024   -0.889793
H       2.187322   -3.972633   -0.061543
H       3.960911   -2.164451   -0.030468
