17

C      -0.254179    1.458949   -0.205356
N      -0.204733    0.031392    0.028767
C      -1.328140   -0.621332    0.729184
C      -0.309753   -1.596935    1.366368
O      -0.164126   -2.832743    0.715213
C       0.760913   -0.500463    1.006256
C       2.079064   -0.979154    0.442259
O       3.100534   -1.045444    1.074840
H       0.687977    1.796896   -0.648860
H      -1.059565    1.690457   -0.909949
H      -0.427604    2.040138    0.719024
H      -1.811881    0.024084    1.480593
H      -2.098183   -1.057770    0.082573
H      -0.417208   -1.814985    2.428242
H      -0.191812   -2.673870   -0.235370
H       0.952256    0.158057    1.868434
H       2.026804   -1.285903   -0.627310
