16

C      -0.033961    1.583955   -0.071405
C      -0.005443    0.054005   -0.048860
C      -1.302003   -0.534054    0.240174
C      -2.373646   -1.024212    0.479889
C       0.710867   -0.680608   -1.217807
N       2.081304   -0.172567   -1.242106
C       1.730882   -1.307051   -0.314095
C       1.092804   -0.637644    0.879225
O       1.233083   -0.698399    2.060482
H       0.944936    1.969546   -0.361987
H      -0.788206    1.945583   -0.776431
H      -0.286560    1.963260    0.922327
H      -3.320820   -1.451986    0.698696
H       0.228667   -1.118301   -2.081580
H       2.565409   -0.598594   -2.032398
H       2.255161   -2.252039   -0.372443
