15

C       0.050752    1.553715    0.019939
C       0.022938    0.031208    0.064650
O       0.644572   -0.494033    1.232401
C      -1.424526   -0.514746   -0.045189
O      -2.080220   -0.004338   -1.170987
C      -1.417813   -2.030814   -0.085871
O      -1.961331   -2.631533   -0.983555
H       1.082100    1.914081    0.064643
H      -0.420003    1.916276   -0.896046
H      -0.502144    1.973879    0.870649
H       0.599882   -0.367893   -0.778107
H       0.343512    0.025044    1.986387
H      -1.950978   -0.222785    0.885026
H      -2.387972   -0.783178   -1.663940
H      -0.887165   -2.544830    0.734637
