19

C      -0.193018    1.459671    0.126177
C      -0.026728   -0.041907    0.049982
C       1.362887   -0.657249   -0.101855
C       0.604798   -0.790744    1.176143
O       1.065649   -0.124988    2.376980
C       0.798188   -1.318574    3.136562
C      -0.668070   -1.584652    3.113169
O      -1.597452   -0.552939    3.055128
C       0.184925   -2.024808    1.929201
H       0.609549    1.914193    0.713912
H      -0.181708    1.910292   -0.871769
H      -1.144790    1.723239    0.601021
H      -0.831823   -0.567369   -0.457935
H       1.488474   -1.534497   -0.728464
H       2.210197    0.021328   -0.092911
H       1.526644   -1.604037    3.886793
H      -1.007246   -2.405164    3.739495
H      -1.087555    0.256713    2.916199
H       0.266778   -3.045740    1.580255
