15

O       0.134211    1.360317    0.177619
C       0.072896   -0.037343   -0.063657
C      -1.329503   -0.545629   -0.124576
N      -2.136420   -0.875335    1.081511
C      -1.908540   -1.899762    0.033532
C      -2.902714   -1.607567   -1.149715
O      -3.679499   -0.456232   -0.830284
C      -2.346486   -0.263493   -1.297218
H      -0.413967    1.548300    0.947198
H       0.576057   -0.190390   -1.025457
H       0.636865   -0.610200    0.692270
H      -1.469230   -1.086331    1.826689
H      -1.423930   -2.843680    0.246451
H      -3.297305   -2.314995   -1.868175
H      -2.184024    0.369889   -2.160543
