21

C       0.105976    1.474146   -0.117890
N       0.011537    0.019508    0.008709
C       0.754862   -0.421681    1.187463
C      -1.341946   -0.511959   -0.064054
C      -2.170549    0.111548   -1.186725
C      -1.451969   -2.082234   -0.054676
N      -2.247359   -1.958876    1.166935
C      -2.170730   -0.592043    1.275244
O      -2.583106    0.191661    2.090450
H       1.162893    1.754450   -0.078883
H      -0.285076    1.809575   -1.079540
H      -0.419414    2.017762    0.685067
H       0.354842   -0.011673    2.130335
H       0.755423   -1.511020    1.264533
H       1.795902   -0.099823    1.090894
H      -1.627183    0.071335   -2.136293
H      -3.109325   -0.437285   -1.301648
H      -2.426083    1.150719   -0.968348
H      -1.993716   -2.503826   -0.907406
H      -0.506602   -2.615368    0.071536
H      -2.718730   -2.648549    1.733009
