20

O      -0.009292    1.436986    0.166591
C       0.001258    0.037008    0.107594
C      -0.571585   -0.755227    1.256277
C      -1.326243   -0.642351   -0.058349
C      -2.595105    0.162120   -0.139196
C      -3.115504    0.614361   -1.559706
C      -4.417829   -0.139130   -1.277660
N      -4.030678   -1.557635   -1.069274
C      -3.924782   -0.588841    0.051229
H       0.651189    1.709687    0.811618
H       0.853168   -0.385147   -0.425794
H      -0.116636   -1.702188    1.526388
H      -0.955335   -0.179372    2.093086
H      -1.333247   -1.528152   -0.685359
H      -2.537825    1.028990    0.521654
H      -3.234877    1.697175   -1.629382
H      -2.549639    0.251031   -2.421187
H      -5.420660    0.115532   -1.598097
H      -4.891614   -2.084056   -0.921764
H      -4.459834   -0.761948    0.977747
