11

C      -0.006732    1.447195   -0.023880
N       0.003263    0.000287    0.074078
C       0.649625   -0.624741    1.096946
N       1.196416    0.018843    2.060490
C       0.642260   -2.078099    1.001633
N       0.664954   -3.233382    0.957737
H       1.001092    1.852707   -0.174163
H      -0.642853    1.736773   -0.861820
H      -0.404058    1.879150    0.898293
H      -0.255606   -0.548005   -0.727417
H       1.594179   -0.615742    2.747640
