20

N       0.020556    1.341689   -0.129592
C       0.058753    0.036020    0.267935
O       1.057028   -0.469002    0.743645
C      -1.251665   -0.730533    0.083600
C      -1.022161   -2.234745   -0.078022
C      -2.323808   -3.041179   -0.071901
C      -2.084509   -4.550544   -0.255704
C      -3.364501   -5.341771   -0.124106
O      -3.819475   -6.073127   -0.965208
H       0.828087    1.916978    0.045823
H      -0.817805    1.776095   -0.472169
H      -1.863969   -0.541066    0.976636
H      -1.814953   -0.324321   -0.765482
H      -0.477169   -2.420081   -1.011679
H      -0.361290   -2.569749    0.727671
H      -2.856403   -2.869345    0.873762
H      -2.990600   -2.684251   -0.867759
H      -1.633579   -4.770981   -1.227688
H      -1.395562   -4.899481    0.527505
H      -3.894140   -5.190795    0.847418
