13

O       0.036211    0.002901    0.003900
C      -0.028281    1.201661    0.009433
C      -1.306679    2.095665    0.032667
C      -0.727936    3.478434    0.031463
C       0.626098    3.365593    0.011870
N       1.083442    2.069152   -0.001016
O       1.264169    4.515577    0.008964
N       0.243786    5.535244    0.028318
C      -0.900984    4.879921    0.041028
H      -1.918641    1.847379   -0.840857
H      -1.893268    1.838271    0.920845
H       2.038213    1.750380   -0.015818
H      -1.808953    5.467316    0.056817
