21

C       0.205852    1.657226   -0.427517
O      -0.153497    0.291527   -0.407578
C       0.632234   -0.516507   -1.237027
C       1.957246   -1.160232   -0.679068
C       2.029985   -1.208377    0.843837
C       1.518599   -2.510349   -1.335563
C       0.108207   -1.929791   -1.452621
C      -1.168810   -2.475239   -0.995119
O      -0.880141   -2.297798   -2.391723
H       1.226466    1.823282   -0.053342
H       0.137419    2.075817   -1.443075
H      -0.496016    2.186045    0.221661
H       0.813901   -0.022227   -2.204244
H       2.874639   -0.733039   -1.091378
H       1.111368   -1.618136    1.274431
H       2.866681   -1.836104    1.167911
H       2.173279   -0.210692    1.270163
H       1.972257   -2.675522   -2.316629
H       1.639090   -3.412669   -0.731151
H      -1.222602   -3.510007   -0.658407
H      -1.919004   -1.801753   -0.586382
