15

C       0.325694    1.146378   -0.372814
N      -0.327206   -0.033125    0.212418
C       0.435741   -0.695932    1.199992
C       0.855322   -1.994019    1.085693
O       0.674870   -2.914972    0.118450
N       1.563970   -2.276854    2.220932
C       1.545895   -1.129496    2.985024
N       0.880160   -0.167977    2.399959
H       1.237810    0.831755   -0.889001
H      -0.344626    1.600044   -1.109460
H       0.600959    1.904992    0.372611
H      -1.229309    0.241590    0.589669
H       0.133231   -2.470724   -0.550266
H       1.997804   -3.157500    2.440670
H       2.036673   -1.079743    3.944854
