15

O      -0.499628    0.526289    0.825294
C       0.316243    0.749601   -0.034193
C       1.361309    1.819188    0.012917
C       1.968364    2.131681   -1.250157
C       2.471008    2.377876   -2.315243
C       1.378815    2.983101    1.022792
C       0.859303    2.533720    2.389953
O       1.829466    1.438274    2.412201
C       2.375914    1.893389    1.205209
H       0.367966    0.134624   -0.957754
H       2.910602    2.597071   -3.256838
H       1.490732    3.998502    0.669668
H       1.103617    3.255348    3.175553
H      -0.165750    2.178861    2.469006
H       3.437662    1.787356    1.018776
