18

O       0.343213    1.173329   -0.497872
C       0.157556   -0.126827   -0.029244
C       0.282424   -0.339148    1.545226
C      -1.222484   -0.703376    1.574736
C      -2.357447    0.342761    1.745255
N      -2.279264    0.595258    0.259201
C      -1.352847   -0.539238    0.087224
C      -1.809805   -2.012502    0.100475
O      -1.616749   -2.091359    1.551707
H      -0.504424    1.621534   -0.335846
H       0.784504   -0.802596   -0.619300
H       0.935488   -1.159427    1.849775
H       0.561256    0.570282    2.083078
H      -3.289631   -0.117790    2.088781
H      -2.148545    1.235283    2.343629
H      -3.149072    0.582529   -0.261930
H      -2.854116   -2.191447   -0.183597
H      -1.163357   -2.720983   -0.431267
