17

C      -0.009339    1.484159    0.010168
C       0.003684    0.027889    0.002338
C       0.023275   -1.175974   -0.004325
C       0.014003   -2.634923   -0.011988
C      -1.407697   -3.228537   -0.001881
C      -1.396565   -4.751166   -0.010194
O      -2.743873   -5.196239    0.000097
H       1.007660    1.892160    0.002940
H      -0.531010    1.883921   -0.866637
H      -0.514694    1.874590    0.900626
H       0.555510   -3.000781   -0.895358
H       0.571849   -3.010091    0.857189
H      -1.948144   -2.880121    0.884188
H      -1.964584   -2.870637   -0.873873
H      -0.862480   -5.114868   -0.904139
H      -0.845771   -5.124435    0.869559
H      -2.743375   -6.157738   -0.005279
