23

C      -0.055685    1.554735   -0.029479
C      -0.003945    0.025581   -0.001673
C       0.723239   -0.523793   -1.234103
O       0.697477   -1.940429   -1.303141
C       1.130381   -2.608243   -0.145303
C       2.625138   -2.639779    0.285798
C       2.120791   -2.619977    1.758155
C       0.764552   -2.043393    1.256684
C       0.701123   -0.507215    1.255481
H       0.953393    1.984148   -0.029858
H      -0.574558    1.923129   -0.920974
H      -0.579597    1.946282    0.848556
H      -1.030103   -0.367512   -0.026760
H       0.246014   -0.179226   -2.156997
H       1.761442   -0.147590   -1.240389
H       0.760632   -3.632528   -0.252782
H       3.227171   -3.487995   -0.046742
H       3.149711   -1.716719    0.025392
H       2.014236   -3.628600    2.166042
H       2.679672   -2.012054    2.473690
H      -0.144581   -2.456496    1.703141
H       1.716805   -0.087557    1.276460
H       0.205418   -0.147535    2.164568
