18

C      -0.033474    1.481770   -0.169645
C       0.085930   -0.019775   -0.049234
C       1.414954   -0.698778   -0.130619
C       0.694214   -0.636163    1.200825
C       1.105993    0.020666    2.531199
C       0.499909   -1.201311    3.298665
C       0.125980   -1.815354    1.932258
O      -0.407473   -2.832481    1.583802
H       0.837367    1.986841    0.260259
H      -0.105889    1.781332   -1.220771
H      -0.925364    1.855167    0.345026
H      -0.754548   -0.585052   -0.445070
H       1.479019   -1.673944   -0.602262
H       2.300403   -0.078103   -0.231587
H       2.182901    0.143413    2.666927
H       0.614930    0.972939    2.744939
H       1.209928   -1.802227    3.873539
H      -0.361844   -0.981728    3.935126
