14

C      -0.049400    1.461190    0.043749
N       0.010910    0.010658   -0.012461
C       0.066130   -0.753830   -1.152312
C       0.110510   -2.061339   -0.708324
O       0.171847   -3.162902   -1.477679
N       0.084876   -2.124907    0.641265
C       0.024475   -0.857052    1.042674
C      -0.021728   -0.415167    2.387312
N      -0.060970   -0.016457    3.474761
H       0.834700    1.896626   -0.429823
H      -0.945631    1.824072   -0.466745
H      -0.083774    1.773086    1.087983
H       0.068789   -0.322230   -2.137869
H       0.190111   -3.919668   -0.878341
