19

C      -0.047805    1.508329   -0.015619
C       0.031502    0.008955   -0.028056
C       0.892366   -0.825325   -0.985349
C      -0.080469   -2.027028   -0.766986
O      -0.450584   -2.823028   -1.849051
C       0.409795   -2.882453    0.402259
O       0.506318   -1.965271    1.493107
C      -0.309365   -0.854632    1.171914
C      -1.089521   -1.045059   -0.081590
H       0.904095    1.950629    0.301369
H      -0.283543    1.904454   -1.010507
H      -0.822622    1.860583    0.673644
H       0.809359   -0.446817   -2.010834
H       1.949989   -0.975310   -0.740182
H      -0.709747   -2.248087   -2.576176
H      -0.309251   -3.685624    0.620786
H       1.395977   -3.321113    0.221687
H      -0.734198   -0.372271    2.044958
H      -2.162579   -0.980536   -0.214341
