25

C      -0.485114    1.356974    0.026797
C       0.114731   -0.050937   -0.057260
C       1.260682   -0.123313   -1.061057
O       0.646664   -0.481715    1.188998
C      -0.312420   -0.837805    2.167306
C       0.409051   -1.510162    3.305494
C       1.041010   -0.695780    4.408988
C      -0.151012   -1.570315    4.710681
C      -1.485785   -0.974577    5.107856
H       0.277263    2.072658    0.351778
H      -0.859888    1.671890   -0.952468
H      -1.321273    1.403010    0.730454
H      -0.678221   -0.754550   -0.366915
H       2.064202    0.560081   -0.768220
H       1.670894   -1.135863   -1.098033
H       0.918209    0.154018   -2.062510
H      -0.860054    0.046408    2.525276
H      -1.058576   -1.522196    1.726408
H       0.965239   -2.386623    2.984236
H       2.019268   -0.984095    4.777429
H       0.875658    0.377410    4.384986
H       0.076532   -2.495347    5.235013
H      -1.667492   -0.010856    4.623763
H      -2.318083   -1.639466    4.849882
H      -1.522362   -0.804953    6.189795
