14

C      -0.560008    0.836010    0.167708
O       0.786466    0.693704   -0.308658
C       0.985502   -0.326088   -1.160369
C       0.605863   -1.655003   -1.213999
N      -0.243436   -2.365464   -0.343220
N       1.164851   -2.205524   -2.326781
N       1.874506   -1.311701   -2.960257
N       1.774700   -0.169162   -2.251825
H      -0.528975    1.622568    0.922363
H      -1.224117    1.132911   -0.651695
H      -0.924206   -0.098903    0.601961
H       0.222114   -2.600145    0.528290
H      -0.513235   -3.237000   -0.788239
H       2.257359    0.663781   -2.549236
