21

C      -0.007972    1.561175    0.068530
C      -0.055597    0.033449   -0.007104
C       0.750910   -0.530504   -1.192579
C       0.713118   -2.026613   -1.280945
N       1.692755   -2.758631   -0.750705
N       1.328841   -4.033928   -0.982399
C       0.152661   -4.134607   -1.648201
C      -0.292580   -2.847221   -1.865381
C      -1.545426   -2.417559   -2.565751
H       1.021181    1.919588    0.182722
H      -0.415994    2.016873   -0.840999
H      -0.587513    1.937200    0.917556
H       0.336546   -0.400872    0.919938
H      -1.098052   -0.300580   -0.083627
H       0.367676   -0.096338   -2.125344
H       1.795673   -0.214459   -1.100688
H       1.933456   -4.777243   -0.678816
H      -0.269689   -5.090492   -1.917916
H      -2.257197   -1.938895   -1.882783
H      -1.335216   -1.695488   -3.363335
H      -2.054874   -3.270977   -3.022375
