16

C       0.025580    1.405197    0.029810
N      -0.028119   -0.041200   -0.061118
C      -1.216415   -0.705213    0.037879
N      -2.334927   -0.093074    0.102061
C      -3.581574   -0.815618    0.153780
C      -4.492287   -0.228992    1.228907
O      -5.457631   -0.795722    1.665470
C      -1.070935   -2.157629    0.032324
N      -0.977819   -3.309954    0.040287
H       1.057118    1.725818   -0.123978
H      -0.608843    1.850345   -0.740974
H      -0.327687    1.768082    1.002831
H       0.813424   -0.570170    0.091829
H      -4.119184   -0.681475   -0.798739
H      -3.495964   -1.899370    0.317671
H      -4.192763    0.787532    1.567253
