14

C      -0.161475    1.612576   -0.001393
C       0.023595    0.104677    0.032373
C       1.183626   -0.638729   -0.694199
C       2.199028   -0.137056    0.360415
C       0.917819   -0.631732    1.073660
O       0.918024   -1.809855    0.174425
H       0.770594    2.166344    0.135976
H      -0.593662    1.921939   -0.959216
H      -0.854949    1.928951    0.785323
H      -0.923557   -0.423533   -0.107941
H       1.327091   -0.827918   -1.759036
H       3.069377   -0.780245    0.493818
H       2.452026    0.924036    0.394263
H       0.741592   -0.812504    2.135037
