18

C      -0.561283    1.166178   -0.082088
C       0.009462   -0.221709    0.148102
C       1.305141   -0.649283   -0.635535
C       1.826843   -1.358398    0.659422
C       0.785168   -0.548444    1.431730
C       0.973346    0.277607    2.625791
O       0.199789   -0.934267    2.652421
C       1.137982   -1.449319   -1.834185
N       0.988595   -2.094829   -2.782076
H       0.204703    1.938345    0.046433
H      -0.970858    1.259078   -1.092884
H      -1.371962    1.372065    0.624554
H      -0.760624   -0.986855    0.002710
H       1.913986    0.228608   -0.869885
H       1.587533   -2.424482    0.659799
H       2.880876   -1.221446    0.905243
H       1.918426    0.238601    3.165951
H       0.401495    1.195492    2.751913
