18

C       0.445587    1.336377   -0.037318
O       0.560712   -0.082010   -0.009479
C       0.451358   -0.640093    1.253184
C       0.466659   -2.165586    1.104069
C       1.412809   -2.747257    2.141032
O       2.701527   -2.137653    1.983807
C       2.723310   -0.778948    2.026910
N       3.774648   -0.085006    2.037863
O       1.508265   -0.184163    2.123774
H       1.265417    1.810988    0.510161
H       0.484601    1.630483   -1.087420
H      -0.512318    1.661356    0.393759
H      -0.445946   -0.272941    1.769650
H      -0.541543   -2.574450    1.211493
H       0.829509   -2.406317    0.101356
H       1.046220   -2.580007    3.161407
H       1.574383   -3.816941    1.998593
H       4.588122   -0.698062    2.062529
