16

N       0.035081   -1.162290   -0.095054
C      -0.013561   -0.006908   -0.029036
C      -0.035412    1.420057    0.042988
C      -1.185651    2.107552    0.012737
C      -1.176792    3.607893    0.119563
O      -0.068113    4.108227    0.849754
C       1.178753    3.605223    0.460603
C       1.839460    2.650754    1.416143
C       1.264282    2.148355    0.100841
H      -2.141020    1.602886   -0.082873
H      -1.220115    4.050041   -0.891368
H      -2.065248    3.954121    0.656535
H       1.789529    4.319268   -0.087750
H       2.918374    2.672049    1.519646
H       1.286447    2.427063    2.320900
H       1.981741    1.858198   -0.660255
