18

C      -0.093182    1.533977   -0.066587
C       0.029134    0.020487    0.031936
O       0.869661   -0.495237   -1.027090
C       1.869433   -1.191934   -0.314594
C       1.252875   -1.963672    0.890936
C       2.554769   -1.723981    1.686222
C       2.311629   -0.390409    0.945043
C       0.776965   -0.515166    1.251381
H       0.882304    2.014687    0.053733
H      -0.496649    1.820295   -1.042015
H      -0.767359    1.916266    0.707509
H      -0.964968   -0.439870   -0.059675
H       2.588716   -1.651327   -0.992061
H       0.634678   -2.861606    0.852844
H       2.459867   -1.698114    2.774554
H       3.432610   -2.303748    1.385451
H       2.915575    0.517165    0.972365
H       0.395043   -0.294619    2.248922
