25

C      -0.601143    1.876456   -0.179034
C      -0.278724    0.403056    0.015262
O      -1.487923   -0.326882   -0.137425
C      -1.429453   -1.770953   -0.133134
C      -0.527235   -2.328294    0.971707
C      -2.894271   -2.216651    0.042974
C      -3.579035   -1.714056    1.316418
C      -0.914974   -2.215152   -1.520143
O      -1.634084   -1.595265   -2.565759
H       0.298239    2.483830   -0.039745
H      -0.990532    2.061951   -1.184550
H      -1.355352    2.200647    0.543626
H       0.476879    0.080762   -0.716638
H       0.145907    0.240565    1.015563
H      -0.804106   -1.929397    1.950975
H      -0.625811   -3.417501    1.010665
H       0.527652   -2.099265    0.795079
H      -3.446320   -1.871133   -0.836187
H      -2.916683   -3.312798    0.009990
H      -4.636142   -1.996942    1.317637
H      -3.128560   -2.134321    2.221562
H      -3.516938   -0.625155    1.381733
H       0.163623   -1.999055   -1.598819
H      -1.035083   -3.298367   -1.632524
H      -1.785669   -0.689561   -2.264214
