23

C      -0.360507    1.285009   -0.102635
O      -0.113318   -0.094524    0.008716
C       0.539407   -0.628953   -1.118941
C       0.691835   -2.138818   -0.943622
C       1.308778   -2.496271    0.399268
O      -0.591494   -2.805428   -1.124806
C      -0.179731   -3.372992   -2.380850
C       1.270142   -2.885716   -2.189121
C       1.948828   -2.134682   -3.326655
H       0.572523    1.861721   -0.211449
H      -1.006858    1.516154   -0.964314
H      -0.866479    1.602035    0.812525
H      -0.041788   -0.418426   -2.030756
H       1.534827   -0.166211   -1.245859
H       0.703469   -2.092311    1.213050
H       1.370170   -3.582485    0.506119
H       2.318695   -2.078286    0.482112
H      -0.342425   -4.456515   -2.418716
H      -0.699751   -2.910423   -3.232914
H       1.919976   -3.700163   -1.855156
H       1.325756   -1.324365   -3.717584
H       2.905614   -1.704747   -3.011924
H       2.156558   -2.816761   -4.158418
