21

C      -0.021518    1.736863    0.127569
C      -0.066681    0.220097    0.121482
C      -1.397865   -0.352578   -0.377122
C      -1.702245   -0.001296   -1.762030
C      -1.938293    0.295765   -2.902840
C       1.181271   -0.559154   -0.214996
C       0.631438   -0.592856    1.192472
C       1.388079    0.022561    2.340639
O       2.315823   -0.947834    2.812424
H       0.961367    2.118306    0.413131
H      -0.250154    2.122381   -0.871218
H      -0.760402    2.155773    0.821750
H      -1.383429   -1.445005   -0.280108
H      -2.211965   -0.000136    0.271748
H      -2.152613    0.550784   -3.910906
H       1.092790   -1.448613   -0.829656
H       2.095566    0.002501   -0.379205
H       0.129706   -1.513443    1.481943
H       1.907219    0.936393    2.015867
H       0.685643    0.313039    3.139211
H       2.754680   -0.586467    3.588352
