18

C      -0.209963    1.527021    0.064495
C      -0.048761    0.043988   -0.023626
C      -0.032883   -0.726316   -1.111590
C       0.091924   -2.197732   -0.798886
C       0.512458   -2.199489    0.701242
C       1.962520   -2.321947    0.838066
N       3.112127   -2.378052    0.951814
C       0.054520   -0.794016    1.242063
O       0.857040   -0.255051    2.266562
H       0.599926    1.973028    0.651371
H      -0.224282    1.990505   -0.924958
H      -1.142390    1.789505    0.580764
H      -0.141945   -0.365106   -2.128561
H      -0.867800   -2.716810   -0.919180
H       0.813303   -2.720193   -1.433906
H       0.051055   -3.013584    1.265919
H      -0.936572   -0.899632    1.702787
H       1.772339   -0.228245    1.958835
