14

N      -0.025655   -1.092387    0.016803
C      -0.035032    0.063788    0.020210
C      -0.069680    1.501321    0.004036
N      -1.006290    2.233097    0.924529
C      -0.850909    3.355630   -0.057672
C       0.650464    3.705752   -0.033187
C       1.234193    2.340877   -0.000624
N       0.986809    3.004403   -1.321761
C      -0.423014    2.416139   -1.225450
H      -1.937295    1.828177    0.807501
H      -1.609076    4.133415   -0.087018
H       1.155149    4.605923    0.290266
H       2.219674    2.066701    0.349221
H      -0.983574    2.127112   -2.111768
