18

C       0.057167    1.488899    0.048857
C       0.007557   -0.003504   -0.009652
C      -0.121358   -0.788551   -1.088903
C      -0.070420   -2.234485   -0.726374
N       1.234117   -2.631755   -0.110043
C       0.080160   -2.284244    0.749363
C       0.110665   -0.852531    1.223341
C       0.718707   -0.433077    2.492593
O      -0.702083   -0.504114    2.360325
H       1.057013    1.846208    0.325523
H      -0.200684    1.932750   -0.915857
H      -0.640045    1.866244    0.805142
H      -0.207714   -0.433933   -2.109336
H      -0.626224   -2.977839   -1.287002
H       1.307581   -3.648866   -0.136367
H      -0.384731   -3.036074    1.377125
H       1.172395   -1.185413    3.136632
H       1.129056    0.570432    2.595438
