17

C      -0.094239    0.811701   -0.389067
O      -0.501838   -0.273634    0.437359
C       0.478357   -0.656966    1.338906
C       0.365666   -2.042345    1.888549
C       1.498548   -1.704749    0.936001
C       1.548636   -2.180594   -0.496391
N       0.934155   -3.369067   -0.753246
O       2.117285   -1.539975   -1.362392
H       0.793672    0.551353   -0.975161
H      -0.930066    1.027045   -1.058261
H       0.116715    1.707265    0.214503
H       0.825081    0.139569    1.999379
H       0.592197   -2.219282    2.933877
H      -0.464283   -2.621564    1.497342
H       2.491721   -1.582875    1.357626
H       0.582089   -3.954324   -0.017637
H       0.995898   -3.740854   -1.686964
