22

C      -0.036143    1.528251    0.719265
C       0.030436    0.075894    0.293578
C       0.310675   -0.359195   -1.111615
C       0.544599    0.609376   -2.253292
C       1.333779   -0.046373   -3.410083
C       1.521073    0.848345   -4.545131
C       1.660526    1.609587   -5.465024
N       1.278312   -0.617596   -0.037090
C       2.549354    0.087685    0.016999
H       0.577966    2.192337    0.109040
H      -1.069833    1.885006    0.657045
H       0.285309    1.638755    1.760927
H      -0.648558   -0.554638    0.869226
H      -0.182024   -1.274514   -1.446463
H      -0.425992    0.944975   -2.637575
H       1.073353    1.508757   -1.931356
H       2.310856   -0.382972   -3.041860
H       0.807861   -0.952176   -3.738949
H       1.790332    2.270786   -6.285424
H       2.545776    1.126724   -0.342270
H       2.898436    0.097482    1.054809
H       3.285873   -0.467988   -0.573164
