14

C      -0.213304   -1.256143    0.009940
C      -0.126343   -0.058192    0.024899
C      -0.015540    1.382103    0.039812
C      -0.259231    2.115789    1.378474
O       0.757446    1.708727    2.288374
C       1.071147    2.738029    1.359096
C       1.436736    2.060148    0.020807
C       2.609412    1.203841    0.013465
N       3.551468    0.534924   -0.000344
H      -0.280015   -2.316233    0.004934
H      -0.612097    1.829237   -0.761096
H      -1.203313    2.452283    1.788067
H       1.435245    3.683048    1.741635
H       1.499896    2.778068   -0.800508
