21

C       0.255448    1.517387    0.126907
C      -0.409214    0.207199   -0.314220
C       0.433209   -0.535799   -1.323298
O       1.644882   -1.182389   -0.870211
C       0.597338   -1.996057   -1.420387
C       0.020204   -3.007965   -0.471399
O       0.084788   -2.640940    0.876919
C      -1.181284   -3.808335   -0.868317
C       0.177564   -4.476966   -0.800874
H       1.220792    1.319482    0.602862
H       0.434609    2.182459   -0.725321
H      -0.373100    2.053811    0.843586
H      -0.608773   -0.434315    0.545762
H      -1.377241    0.421595   -0.786208
H       0.594800    0.016596   -2.253323
H       0.820250   -2.403368   -2.408669
H       0.951564   -2.226790    0.989495
H      -1.888958   -4.029455   -0.077544
H      -1.627254   -3.629259   -1.840925
H       0.663724   -4.760323   -1.728777
H       0.365337   -5.135638    0.038788
