17

C      -0.281699    1.524066    0.174346
C       0.112804    0.046812   -0.007820
C       0.876086   -0.519558    1.148158
C       2.210105   -0.874731    1.265067
C       2.429851   -1.335886    2.581276
C       1.220093   -1.255207    3.251310
N       0.288993   -0.754590    2.359777
C       0.874387   -1.590272    4.576074
N       0.573497   -1.860682    5.663396
H       0.605044    2.149279    0.312227
H      -0.827278    1.888176   -0.701200
H      -0.924617    1.662533    1.049641
H      -0.790151   -0.551645   -0.187673
H       0.732253   -0.059180   -0.903427
H       2.942584   -0.806312    0.475401
H       3.353671   -1.692246    3.008483
H      -0.680541   -0.600537    2.581216
