19

C      -0.728056    1.261841    0.002624
C       0.188590    0.040410    0.007210
C       1.147434   -0.028115   -1.241100
C       2.347912   -0.661184   -0.624768
C       2.333201   -0.693797    0.736447
C       1.083625   -0.080701    1.291942
N       3.492124   -1.226486    1.244546
C       4.206203   -1.516006    0.176213
N       3.562918   -1.185088   -0.994500
H      -0.145987    2.190015    0.039644
H      -1.349463    1.293389   -0.899139
H      -1.398654    1.256137    0.868436
H      -0.433265   -0.861455   -0.031368
H       0.692594   -0.594617   -2.062081
H       1.361407    0.977758   -1.631257
H       1.276793    0.907252    1.732987
H       0.593730   -0.680198    2.066261
H       5.185775   -1.971136    0.174726
H       3.914563   -1.334336   -1.925001
