16

O      -0.611618    0.517262    0.431813
C       0.240256    0.902264   -0.326708
C       1.307446    1.920500    0.013337
C       1.355628    3.034132   -1.017155
C       2.505639    4.017214   -1.178032
C       3.839374    3.294535   -1.035942
O       3.435406    2.276993   -1.994413
C       2.217366    2.983778   -2.245197
H       0.296817    0.517201   -1.371349
H       1.124322    2.298525    1.023307
H       2.268595    1.390233    0.003851
H       0.400806    3.523303   -1.202975
H       2.361595    5.088897   -1.172609
H       4.685189    3.868931   -1.428417
H       4.101583    2.871626   -0.059041
H       1.874654    3.050483   -3.271430
