21

C      -0.154614    1.695216   -0.329979
C       0.034969    0.180801   -0.196564
C      -1.308450   -0.550128   -0.072644
C      -1.248642   -2.093602    0.054270
C      -0.510310   -2.761549   -1.127637
C      -0.547925   -2.479933    1.352320
O      -1.120745   -2.842623    2.348097
C      -2.666466   -2.671898    0.100909
O      -3.668406   -2.048682   -0.125706
H       0.807017    2.208724   -0.422862
H      -0.752721    1.940961   -1.214217
H      -0.671644    2.107486    0.543094
H       0.587477   -0.190422   -1.067849
H       0.665586   -0.025877    0.677152
H      -1.859132   -0.160651    0.791455
H      -1.933583   -0.325143   -0.944121
H       0.561929   -2.548089   -1.092268
H      -0.631332   -3.850100   -1.107321
H      -0.900175   -2.393585   -2.081029
H       0.562692   -2.400582    1.326436
H      -2.701587   -3.758544    0.332302
