20

C      -0.031545    1.514665   -0.038614
C       0.037434   -0.006282   -0.014084
O       0.692199   -0.433451   -1.200277
C       0.986257   -1.811135   -1.162108
C       2.024739   -2.086529   -0.086453
N       1.606607   -1.514281    1.185457
C       2.312462   -1.963452    2.373331
C       0.693270   -0.500845    1.288840
O       0.360856   -0.009223    2.355654
H       0.975690    1.937953   -0.090647
H      -0.593277    1.846232   -0.915232
H      -0.517469    1.872550    0.869305
H      -0.988143   -0.416980    0.002297
H       0.074131   -2.400335   -0.969645
H       1.373761   -2.090287   -2.145723
H       2.155858   -3.169568    0.038190
H       2.997474   -1.671893   -0.390634
H       3.386606   -1.752366    2.291630
H       1.903012   -1.434629    3.232538
H       2.184265   -3.043884    2.510181
