23

C      -0.130214    1.316853    0.138186
O      -0.004811   -0.071627   -0.066155
C       0.684275   -0.523199   -1.242194
C       0.028628    0.019191   -2.524158
C       2.167821   -0.122200   -1.192755
C       0.582855   -2.059048   -1.159159
C      -0.859904   -2.601858   -1.103828
C      -0.899935   -4.048015   -0.926505
C      -0.905485   -5.241630   -0.782177
H       0.840757    1.826637    0.209159
H      -0.723531    1.810084   -0.644458
H      -0.650813    1.441846    1.091377
H       0.215693    1.089450   -2.650547
H       0.439488   -0.488568   -3.402203
H      -1.053588   -0.135419   -2.513166
H       2.621054   -0.457863   -0.255559
H       2.714270   -0.579096   -2.023595
H       2.299406    0.960838   -1.272681
H       1.108174   -2.499652   -2.012945
H       1.109373   -2.384753   -0.256396
H      -1.387351   -2.107355   -0.281679
H      -1.400076   -2.340185   -2.021720
H      -0.925700   -6.294894   -0.651777
