18

C      -0.018461    1.530561    0.061501
C       0.003471    0.032151   -0.032289
C       0.015388   -0.671194   -1.193882
C       0.036687   -2.129253   -1.233813
O       0.047587   -2.778138   -2.279389
C       0.044231   -2.781001    0.088366
C       0.065693   -4.279376    0.123065
C       0.031674   -2.021334    1.208582
N       0.011734   -0.648277    1.159479
H       0.860027    1.908556    0.598202
H      -0.023827    1.973834   -0.934837
H      -0.908754    1.882789    0.596272
H       0.009112   -0.147347   -2.142385
H       0.945742   -4.660982   -0.405330
H       0.069867   -4.665804    1.146279
H      -0.801584   -4.686177   -0.407676
H       0.036355   -2.445600    2.206732
H       0.002626   -0.128068    2.020887
