22

C      -0.475323    1.583223    0.708660
C      -0.489762    0.049318    0.740716
C       0.526081   -0.554866    1.676333
C       0.214847   -1.678205    2.591632
N       0.447700   -0.334747    3.167809
C       1.921020    0.003033    3.137807
C       2.942720   -0.924915    2.511770
C       3.185459   -2.431372    2.587376
C       2.015318   -0.131938    1.629098
H       0.470046    1.975757    0.321187
H      -1.276630    1.964065    0.068392
H      -0.619743    1.984614    1.715864
H      -1.484823   -0.295758    1.043809
H      -0.316643   -0.350157   -0.268580
H      -0.834463   -1.957455    2.654823
H       0.893876   -2.489917    2.799364
H       2.224448    0.815863    3.786833
H       3.888506   -0.383593    2.562208
H       2.614092   -2.986877    1.840360
H       4.243574   -2.636554    2.396931
H       2.951674   -2.842276    3.575031
H       2.373134    0.584753    0.900816
