20

C       0.261454    1.542108    0.098786
C      -0.082195    0.059033   -0.075449
N       0.619275   -0.497204   -1.226245
C       1.624601   -1.241552   -1.063873
C       2.409766   -1.724089   -2.269615
O       3.019528   -2.990382   -2.087160
C       3.792689   -2.998000   -0.903545
C       2.883799   -2.775540    0.290498
O       2.138303   -1.555874    0.166700
H       1.319581    1.668796    0.348467
H       0.061751    2.094711   -0.823832
H      -0.334745    1.982556    0.904245
H       0.134397   -0.485005    0.851701
H      -1.155725   -0.036411   -0.276822
H       1.735545   -1.796605   -3.122416
H       3.180281   -0.966898   -2.499099
H       4.278602   -3.975717   -0.835888
H       4.572716   -2.219186   -0.942356
H       2.181222   -3.614043    0.380688
H       3.452205   -2.688884    1.220791
