18

O       0.111952    0.085685   -0.373561
C       0.013566    1.251301   -0.113380
C      -1.106351    2.246727   -0.115860
C      -1.013547    3.082486    1.121274
N      -0.110613    3.400385    0.024636
C       1.030362    2.397757    0.102317
C       1.971520    2.441788    1.274605
C       1.789789    1.589431    2.511638
C       2.874762    1.256921    1.522546
H      -1.965007    2.272834   -0.776781
H      -1.806421    3.812347    1.256394
H      -0.623304    2.658600    2.040121
H       1.596526    2.505266   -0.831785
H       2.415271    3.422008    1.429799
H       2.070589    2.019601    3.466664
H       0.941326    0.915433    2.559385
H       2.722968    0.381972    0.899703
H       3.906644    1.448235    1.793784
