19

C      -0.227575    1.464105   -0.136712
C      -0.011930   -0.033006   -0.030646
O       1.094540   -0.520956    0.032998
C      -1.270315   -0.905522   -0.032011
C      -1.670863   -1.167780   -1.520073
O      -3.052173   -1.302988   -1.713027
C      -1.002200   -2.176064    0.784661
C      -2.078000   -3.221237    0.877856
O      -3.118127   -3.259288    0.260071
H       0.713262    1.963650   -0.370635
H      -0.987311    1.710381   -0.884694
H      -0.600167    1.836563    0.825658
H      -2.098735   -0.334688    0.402021
H      -1.360660   -0.316853   -2.136799
H      -1.102545   -2.040772   -1.882051
H      -3.341470   -2.027669   -1.136286
H      -0.101141   -2.675288    0.398407
H      -0.728393   -1.921764    1.819019
H      -1.844835   -4.031020    1.602961
