21

C       0.067585    1.561045   -0.018272
C      -0.011187    0.033110    0.016668
C      -1.452564   -0.491808   -0.068647
C      -1.520105   -1.994126    0.018296
C      -1.052085   -2.888690   -1.149570
O      -2.225371   -3.733176   -1.018307
C      -2.757847   -2.923718    0.042585
C      -2.260463   -3.344129    1.430828
O      -1.076328   -2.516323    1.296622
H       1.103780    1.906702    0.047214
H      -0.359533    1.961078   -0.944810
H      -0.484660    2.004033    0.817917
H       0.577451   -0.383826   -0.811026
H       0.443268   -0.344731    0.939166
H      -2.047920   -0.063491    0.747360
H      -1.917955   -0.167897   -1.008866
H      -1.024394   -2.402203   -2.133350
H      -0.117446   -3.430635   -0.971854
H      -3.804225   -2.650177   -0.107038
H      -2.884020   -3.010664    2.270447
H      -2.026212   -4.408580    1.536511
