14

C      -0.185502    1.412307    0.038838
N      -0.117004   -0.025574   -0.081675
C       0.587899   -0.602697   -0.980346
C       1.433724    0.000534   -2.027546
N       2.135684   -0.600117   -2.923090
O       2.119678   -1.983346   -2.936237
C       1.376384   -2.652867   -2.019317
C       0.637344   -2.049879   -1.077167
F      -0.061973   -2.775348   -0.216789
H       0.399544    1.999877   -0.681674
H      -1.234058    1.722178   -0.046076
H       0.138852    1.695948    1.047324
H       1.513217    1.079426   -2.101394
H       1.451301   -3.725644   -2.139122
