16

O      -0.014209   -0.023648   -0.366882
C      -0.060202    1.131064   -0.038390
C      -1.360988    1.865282    0.211107
C      -1.140643    3.304159    0.613664
C       0.009782    3.720873    1.489224
C      -0.034980    4.137474    0.024643
C       1.254275    3.295725   -0.231173
C       1.297554    2.890964    1.190926
N       1.151219    1.872245    0.136104
H      -1.964474    1.796638   -0.701462
H      -1.912168    1.317113    0.984043
H      -2.049114    3.870915    0.802781
H      -0.104705    4.334638    2.372252
H      -0.189329    5.121942   -0.395540
H       2.046332    3.569813   -0.916800
H       2.131240    2.775988    1.872331
