14

C       0.124381    1.388046   -0.073983
N       0.083511   -0.048629   -0.008665
N       0.137470   -0.822982   -1.165518
C       0.062150   -2.043981   -0.732022
N      -0.023877   -3.173359   -1.528184
N       0.000404   -2.106502    0.636895
C      -0.004327   -0.792556    1.141234
O      -0.069232   -0.434583    2.299723
H       1.052185    1.732046   -0.542489
H      -0.725156    1.777585   -0.644205
H       0.074822    1.755068    0.952530
H       0.097555   -2.930026   -2.503715
H       0.620414   -3.909221   -1.263755
H      -0.184719   -2.913366    1.206731
