16

C      -0.216325   -0.581000    1.046168
C      -0.037425    0.163527    0.119805
C       0.220139    1.082104   -0.981054
C       1.514432    1.869607   -0.767040
O       1.815324    2.765364   -1.874554
C       2.014772    3.845778   -0.955288
C       0.740899    4.188821   -0.257367
C       1.578249    3.022117    0.233819
H      -0.389587   -1.244312    1.856891
H       0.306162    0.530114   -1.925651
H      -0.618285    1.776928   -1.102396
H       2.349632    1.173520   -0.624833
H       2.855185    4.507709   -1.125924
H       0.780791    5.059430    0.390013
H      -0.208100    4.038637   -0.763929
H       1.975150    2.961185    1.237037
