21

C       0.063698    0.428393   -0.722120
N      -0.625769   -0.715717   -0.158803
C      -1.882391   -0.659704   -0.071114
O      -2.663704   -1.622930    0.445206
C      -2.038355   -2.748591    1.086973
C      -1.872486   -3.964036    0.187482
C      -1.488149   -5.209092    0.961133
C      -2.677695   -4.066305   -1.056248
N      -1.223351   -3.818969   -1.120378
H       0.657178    0.112631   -1.587156
H      -0.609730    1.239623   -1.040718
H       0.765450    0.835008    0.014638
H      -2.507492    0.177957   -0.403701
H      -1.068713   -2.438531    1.487736
H      -2.706612   -3.000699    1.916544
H      -2.276033   -5.501393    1.664600
H      -1.312306   -6.035829    0.269747
H      -0.565843   -5.048674    1.531779
H      -2.991295   -5.043391   -1.415317
H      -3.356916   -3.252854   -1.291147
H      -1.030649   -2.837896   -1.305127
