19

O       0.082178    1.459040    0.143548
C      -0.043699    0.060147    0.025785
C       0.224934   -0.714241    1.331010
N      -1.116990   -1.396964    1.273147
C      -2.097566   -0.297930    1.334268
C      -1.450840   -0.562611    0.030943
C      -2.113752   -1.089830   -1.187388
C      -3.544631   -1.473292   -1.230353
N      -3.098618   -0.249292   -1.915820
H      -0.097208    1.854962   -0.715924
H       0.552284   -0.324652   -0.812441
H       1.031958   -1.445546    1.264398
H       0.365527   -0.090250    2.218671
H      -3.113731   -0.648150    1.481781
H      -1.843384    0.609493    1.877788
H      -1.440802   -1.614898   -1.863587
H      -3.854229   -2.278702   -1.889978
H      -4.139475   -1.380454   -0.327167
H      -3.330190    0.552995   -1.332217
