20

C      -0.207199    1.819049    0.458401
C      -0.114339    0.345516    0.128585
C      -1.333329   -0.201457   -0.594825
O      -1.066080   -1.531798   -1.014668
N       1.216655   -0.131317   -0.306023
C       0.679181   -0.568732    0.978967
C       1.368987   -0.357433    2.322930
O       1.021215   -1.699526    2.729766
C       0.388613   -1.987944    1.462467
H       0.703216    2.156225    0.958533
H      -0.328512    2.416204   -0.452470
H      -1.059581    2.026007    1.115850
H      -2.205311   -0.161216    0.077325
H      -1.553889    0.444618   -1.459900
H      -1.828810   -1.861272   -1.497514
H       1.088692   -0.879613   -0.986707
H       2.453914   -0.205878    2.258255
H       0.933987    0.399412    2.988818
H      -0.665407   -2.262570    1.579882
H       0.904959   -2.783597    0.909938
