23

C      -0.010518    1.599487   -0.000359
C       0.052637    0.080474    0.028686
C       1.068630   -0.646998   -0.894708
C       1.363895   -1.652567    0.263148
C       0.727980   -0.623962    1.238788
C       0.583537   -2.986216    0.099009
C       1.650156   -3.964824   -0.330157
C       2.874510   -3.479027   -0.132285
C       2.833419   -2.090447    0.458678
H       0.983399    2.035574    0.154215
H      -0.387984    1.965600   -0.962024
H      -0.669572    1.987807    0.784621
H      -0.950321   -0.333629   -0.124618
H       0.704398   -1.058305   -1.840539
H       1.936609   -0.011173   -1.103304
H       1.489592    0.018452    1.695838
H       0.083205   -1.014389    2.032098
H       0.130625   -3.305610    1.050069
H      -0.241829   -2.903125   -0.618555
H       1.419515   -4.954004   -0.710653
H       3.800245   -4.009905   -0.326134
H       3.535266   -1.393640   -0.015518
H       3.102923   -2.115789    1.526104
