19

C      -0.105834    1.552130   -0.041616
C      -0.040024    0.019663   -0.017745
C       1.141626   -0.540592   -0.884838
C       2.017459   -0.645701    0.386853
C       0.725520   -0.555271    1.255794
C       0.745246    0.218223    2.476994
C       0.772056    0.877855    3.482925
C      -1.346021   -0.566124   -0.260261
C      -2.422842   -1.064588   -0.459195
H       0.882572    1.987402    0.132330
H      -0.469740    1.894636   -1.014611
H      -0.780390    1.924280    0.733197
H       0.899227   -1.518050   -1.306278
H       1.490518    0.114650   -1.685850
H       2.618840   -1.547377    0.512504
H       2.658898    0.225706    0.531388
H       0.343940   -1.560510    1.456742
H       0.793218    1.451228    4.376339
H      -3.374621   -1.501492   -0.634363
