13

N       0.169852    1.284169    0.179311
C      -0.030539   -0.062960    0.066793
C      -1.164484   -0.847210    0.027702
C      -0.702452   -2.186754   -0.013721
C       0.659480   -2.120505    0.001800
O       1.083316   -0.819481    0.050449
N       1.647099   -3.128473   -0.031245
O       1.235355   -4.290268   -0.074267
O       2.827526   -2.786048   -0.016325
H       1.079321    1.609779   -0.114574
H      -0.592223    1.866563   -0.130615
H      -2.184768   -0.500544    0.032708
H      -1.281396   -3.094306   -0.052572
