14

C      -0.702343    1.133196    0.270688
N       0.040786   -0.116718    0.127382
C       1.330069   -0.093446   -0.502789
C       1.221357   -0.392660    0.972564
C       1.752717    0.622033    1.918712
O       1.839958    1.812398    1.714304
C       2.183983    0.065639    3.220375
N       2.534157   -0.372483    4.231733
H      -0.074911    2.013718    0.448514
H      -1.271323    1.278429   -0.652092
H      -1.411827    1.028406    1.096320
H       1.559952   -0.918747   -1.171479
H       1.767115    0.869764   -0.761434
H       1.285812   -1.419470    1.320556
