23

C      -0.216914    1.575147    0.002786
C      -0.000726    0.060013    0.038636
C       0.658353   -0.485313   -1.232339
C       0.885879   -2.004875   -1.195124
C       1.534972   -2.537861   -2.440747
C       0.783235   -2.919569   -3.706367
C       1.659951   -3.926281   -3.026692
O       3.026367   -3.739210   -3.404549
C       3.018812   -2.419380   -2.796414
H       0.733554    2.107779   -0.113755
H      -0.860683    1.863926   -0.835577
H      -0.688384    1.934044    0.923001
H       0.617539   -0.202051    0.907656
H      -0.963953   -0.445219    0.190807
H       0.039864   -0.235382   -2.104633
H       1.620217    0.022691   -1.388448
H       1.504094   -2.258009   -0.322257
H      -0.076261   -2.511817   -1.044149
H      -0.285265   -3.057204   -3.565812
H       1.075347   -2.530809   -4.678630
H       1.356560   -4.908255   -2.680556
H       3.321822   -1.633898   -3.499402
H       3.673466   -2.399879   -1.916047
