15

O       0.083209    1.440504   -0.108941
C       0.034205    0.043986    0.018724
C       0.188634   -0.806923   -1.274276
O      -1.070094   -1.463554   -1.026049
C      -1.367468   -0.585494    0.092135
C      -1.407148   -1.390980    1.403790
O      -2.351692   -1.995946    1.846024
C      -0.038388   -1.297947    1.980354
C       0.740113   -0.504199    1.235279
H       0.995504    1.733046   -0.005814
H       0.152579   -0.183671   -2.176308
H       1.024580   -1.512876   -1.331018
H      -2.239096    0.050693   -0.078251
H       0.240702   -1.813102    2.891029
H       1.780195   -0.267311    1.443159
