17

C      -0.056934    1.555617   -0.036836
C       1.520166    1.560062    0.006083
C       1.486558    0.006189   -0.018685
O       1.580623   -0.712401    1.220845
C       0.124317   -0.757944    1.310708
C      -0.041680   -0.005403   -0.026256
C       0.006895   -0.853434   -1.306067
O       0.766105   -0.106843   -2.265145
C       1.501136   -0.853451   -1.294327
H      -0.555414    2.016046    0.819703
H      -0.465837    1.976994   -0.955826
H       1.994933    2.022185   -0.860714
H       1.961839    1.959169    0.920989
H      -0.247393   -1.788855    1.341466
H      -0.241991   -0.219351    2.192733
H      -0.701746   -1.570724   -1.707978
H       2.226265   -1.573255   -1.658557
