22

C      -0.134063    1.584370   -0.205128
C       0.404016    0.164912   -0.006871
C       0.526872   -0.597200   -1.315953
C       0.759008   -2.120668   -1.239477
C      -0.657576   -2.234312   -1.852312
O      -0.767010   -0.794621   -1.958592
C      -0.792954   -2.920225   -3.188880
C      -1.725852   -2.384634   -4.206400
N      -0.264469   -2.280282   -4.400483
H       0.542067    2.181035   -0.827592
H      -1.108548    1.554891   -0.700689
H      -0.251577    2.101524    0.751523
H       1.394269    0.191655    0.467442
H      -0.255102   -0.396512    0.667275
H       1.205820   -0.065170   -1.996556
H       1.556954   -2.500103   -1.879669
H       0.875007   -2.524546   -0.232017
H      -1.409878   -2.634759   -1.158324
H      -0.627325   -3.996056   -3.143801
H      -2.236293   -3.058949   -4.887820
H      -2.266742   -1.476650   -3.956300
H       0.003266   -1.327571   -4.155735
