13

O      -0.039675   -0.049173   -0.087770
C       0.016995    1.129839    0.159198
C       1.268976    1.960514    0.050190
C       1.223090    3.219526   -0.906766
C       1.500765    4.106038    0.313330
O       0.443613    3.870612    1.250041
C       1.533492    2.945424    1.215633
H      -0.878678    1.697529    0.490380
H       2.120672    1.313532   -0.167061
H       2.035748    3.193524   -1.634928
H       0.277928    3.419747   -1.417267
H       2.003640    5.063754    0.368335
H       2.066110    2.764578    2.141615
