23

C      -0.108467    1.548889   -0.057488
C       1.442712    1.551315   -0.109842
C       1.430225    0.147949    0.564315
C      -0.058647    0.008900    0.131097
C       2.443369   -0.900447    0.116876
C       3.912903   -0.559008    0.495422
C       4.584963   -1.907705    0.858214
C       3.404546   -2.803492    1.152620
C       2.255847   -2.265728    0.747402
H      -0.483414    2.053595    0.837706
H      -0.647701    1.938304   -0.924289
H       1.809132    1.488280   -1.140420
H       1.973802    2.361010    0.396855
H       1.487491    0.260169    1.654400
H      -0.758772   -0.445594    0.836736
H      -0.143538   -0.515005   -0.827370
H       2.350489   -0.997691   -0.977980
H       4.439088   -0.020469   -0.296797
H       3.907489    0.091189    1.377875
H       5.174319   -2.309651    0.021409
H       5.278387   -1.818581    1.702384
H       3.512165   -3.784802    1.602620
H       1.282630   -2.740399    0.818076
