18

C       0.761796   -0.338454    1.288104
N       0.030932   -0.036768    0.055707
C      -1.320654   -0.566438    0.022196
C      -2.205404   -0.002978    1.038699
C      -2.837914    0.540591    1.906189
C      -1.972768   -0.798154   -1.387039
C      -0.944964   -1.909890   -1.692302
C      -1.494913   -2.101456   -0.260825
O      -2.851608   -1.811327   -0.767932
H       1.745652    0.135842    1.241327
H       0.251000   -0.002756    2.203126
H       0.917395   -1.419910    1.362579
H      -0.015426    0.970365   -0.065884
H      -3.427238    0.997888    2.662120
H      -2.436131   -0.059268   -2.041401
H      -1.296033   -2.655403   -2.405232
H       0.098464   -1.625960   -1.811776
H      -1.386127   -2.932885    0.435673
