23

C      -0.128156    1.428070   -0.036394
C       0.019007   -0.074102    0.093707
C       1.381024   -0.665481   -0.183001
C       0.804150   -0.660761    1.239576
C       1.220424    0.079636    2.478834
C       0.659127   -2.193058    1.182097
C       1.339390   -2.193155   -0.236203
C       0.612281   -2.872489   -1.390085
O       2.688234   -2.643564   -0.165611
H       0.793751    1.951809    0.233153
H      -0.369000    1.703363   -1.068864
H      -0.929323    1.810271    0.605902
H      -0.861293   -0.621812   -0.244984
H       2.185425   -0.073552   -0.606439
H       1.398052    1.141188    2.285884
H       0.447050    0.011400    3.254643
H       2.142437   -0.341182    2.895443
H       1.294611   -2.712931    1.903362
H      -0.363990   -2.580725    1.251471
H      -0.410221   -2.501347   -1.502017
H       1.150531   -2.702358   -2.327721
H       0.550830   -3.955835   -1.223561
H       2.671405   -3.604095   -0.089192
