20

C      -0.298571    1.569928    0.094169
C       0.022447    0.079483    0.057954
C       1.141355   -0.460831   -0.892215
C       1.779668   -1.215494    0.287247
C       2.316846   -2.616869    0.208530
C       2.182645   -0.228388    1.341185
O       2.634589    1.071853    1.066016
C       0.733066   -0.579694    1.250170
H       0.601287    2.160855    0.272428
H      -0.748610    1.892333   -0.852177
H      -1.016386    1.792884    0.892046
H      -0.897096   -0.480769   -0.143535
H       0.759960   -1.123534   -1.672720
H       1.778380    0.299174   -1.355152
H       3.220311   -2.663663   -0.413152
H       2.578479   -3.000361    1.200466
H       1.583366   -3.303370   -0.230415
H       2.677878   -0.689212    2.198767
H       3.509563    1.001980    0.669321
H       0.221758   -1.025298    2.097813
