16

C       1.102646   -1.252603    0.643419
C       0.813869   -0.144707    0.276529
C       0.454840    1.168440   -0.165815
C       0.187623    2.260456    0.872602
C       1.409376    2.344675    0.030804
O       2.625470    2.149059    0.685927
C       3.746081    2.089212   -0.163923
C       3.763587    0.949213   -1.100059
N       3.810501    0.080843   -1.860134
H       1.371939   -2.231425    0.954000
H      -0.146143    1.205545   -1.069980
H      -0.621566    2.958386    0.692597
H       0.336426    1.974769    1.907008
H       1.445247    3.086904   -0.766484
H       3.841994    3.010559   -0.759191
H       4.621750    2.020058    0.487429
