13

C       0.077088    1.498671    0.032112
C       0.042891    0.045882    0.053994
C       0.000738   -1.157122    0.077956
C      -0.028137   -2.588892    0.090238
O      -0.629908   -3.248190    1.216585
C      -1.294607   -3.363187   -0.034567
C      -2.567631   -2.689578   -0.170965
N      -3.595145   -2.179687   -0.309661
H       0.879648    1.863486   -0.617502
H      -0.869353    1.907797   -0.336292
H       0.249428    1.900481    1.036243
H       0.866789   -3.090919   -0.276479
H      -1.258278   -4.349537   -0.494434
