15

C      -0.611009    1.384036   -0.536136
C      -0.107272    0.066763   -0.053049
N       0.818990   -0.626081   -0.700970
N       0.961339   -1.724594    0.080688
C       0.135312   -1.650360    1.141426
C       0.024783   -2.693083    2.218600
C       0.923762   -3.823452    1.995543
N       1.648425   -4.697398    1.782709
N      -0.558331   -0.531674    1.093743
H      -0.431886    2.163534    0.210788
H      -0.109520    1.659533   -1.465082
H      -1.690439    1.343948   -0.711691
H       1.615756   -2.450496   -0.167253
H       0.246268   -2.240727    3.191783
H      -1.007514   -3.056564    2.273348
