26

C       3.342222    0.732271    3.593696
C       3.143233   -0.461064    2.652739
C       1.665661   -0.780521    2.337731
C       0.984548    0.348044    1.543667
C       1.533018   -2.136646    1.634331
C       2.138146   -2.239882    0.244207
C       1.521993   -3.365869    2.486974
N       0.315791   -2.954372    1.777601
C      -0.824683   -2.522614    2.568839
H       2.813537    0.582014    4.542062
H       4.402805    0.872526    3.825169
H       2.977659    1.666420    3.155578
H       3.686625   -0.275967    1.717515
H       3.602435   -1.350156    3.101834
H       1.153998   -0.861731    3.304166
H      -0.043380    0.083371    1.278446
H       0.946414    1.273390    2.125204
H       1.522529    0.565485    0.614867
H       3.216665   -2.051282    0.259208
H       1.968362   -3.241420   -0.157204
H       1.679871   -1.524855   -0.446661
H       1.990205   -4.288123    2.148769
H       1.547324   -3.220553    3.567868
H      -0.577034   -1.997819    3.504750
H      -1.464239   -1.868235    1.967509
H      -1.411874   -3.408072    2.835148
