23

C      -0.574534    1.289134    0.383594
C       0.106772   -0.022450    0.030443
O       0.673320   -0.566620    1.202783
C       1.326295   -1.801422    0.978517
C       1.932225   -2.267280    2.275476
C       1.060320   -2.966589    3.302044
C       2.117056   -3.730500    2.543310
O       1.736245   -4.618839    1.539693
C       1.355061   -5.883852    2.041002
H       0.147898    1.996451    0.801007
H      -1.026233    1.737763   -0.506344
H      -1.359666    1.124785    1.127141
H      -0.619695   -0.729583   -0.406757
H       0.888165    0.140846   -0.732304
H       0.621113   -2.554316    0.596610
H       2.112471   -1.680870    0.213289
H       2.706445   -1.611204    2.662394
H       1.210141   -2.755129    4.354915
H       0.029400   -3.144492    3.014332
H       3.011567   -4.038379    3.088088
H       1.081832   -6.501853    1.182510
H       2.181749   -6.370300    2.580979
H       0.495273   -5.808739    2.721990
