23

C       0.244906    1.576800    0.059714
C      -0.024575    0.083216    0.079303
C      -1.467423   -0.322588    0.354810
C      -2.478063    0.216286   -0.641415
C      -2.685217   -0.458285   -1.986337
C      -3.751945   -0.528513   -0.922355
O      -3.955383   -1.726810   -0.227082
C       0.797939   -0.786963   -0.842051
C       1.057294   -0.804969    0.646993
H       1.310657    1.782699   -0.080980
H      -0.295427    2.075625   -0.752529
H      -0.062061    2.046447    1.002424
H      -1.545236   -1.413502    0.381318
H      -1.746965    0.024773    1.359795
H      -2.580133    1.298080   -0.643364
H      -2.854430    0.149447   -2.868810
H      -2.124771   -1.370046   -2.164069
H      -4.655302    0.063860   -1.069663
H      -4.361189   -2.354559   -0.833529
H       0.328317   -1.658773   -1.284472
H       1.530483   -0.308558   -1.483986
H       1.964763   -0.336408    1.013985
H       0.758622   -1.686602    1.205072
