18

O      -0.143115    1.388346    0.082890
N       0.024574   -0.016811    0.056635
C      -1.087029   -0.607291   -0.057308
C      -2.578172   -0.290898   -0.005575
C      -3.070940   -0.927817   -1.322753
C      -2.240771   -2.264476   -1.302042
C      -1.473678   -2.074211    0.024333
C      -2.616159   -1.532966    0.963728
O      -2.274315   -1.303974    2.300791
H       0.766891    1.694694    0.159242
H      -2.960169    0.682760    0.290518
H      -4.149764   -1.105509   -1.304166
H      -2.844622   -0.307889   -2.192975
H      -2.877561   -3.153050   -1.276974
H      -1.568765   -2.352159   -2.158714
H      -0.779991   -2.846186    0.351159
H      -3.547338   -2.106155    0.969482
H      -1.440357   -0.817451    2.325845
