26

C       0.244281    1.556915    0.341425
C      -0.007979    0.067543    0.077201
C       0.589524   -0.475075   -1.240961
C       2.102943   -0.174128   -1.360624
C       2.999844   -0.845086   -0.312360
C       0.246238   -1.977176   -1.451395
C      -1.271215   -2.230565   -1.478722
C       0.870982   -2.548923   -2.735250
H       1.300070    1.774665    0.527315
H      -0.076103    2.170523   -0.508601
H      -0.316323    1.892478    1.219843
H       0.372576   -0.521660    0.922245
H      -1.090173   -0.093344    0.066828
H       0.102837    0.074433   -2.063104
H       2.446044   -0.458476   -2.360513
H       2.246379    0.910690   -1.307221
H       2.933706   -1.936846   -0.355675
H       4.048254   -0.574192   -0.472732
H       2.736251   -0.540708    0.705640
H       0.657630   -2.540392   -0.601344
H      -1.754482   -1.631297   -2.260447
H      -1.479773   -3.283275   -1.696340
H      -1.756213   -1.994538   -0.528804
H       0.550357   -3.584635   -2.888572
H       0.556699   -1.974163   -3.615324
H       1.963498   -2.546941   -2.708745
