17

C      -0.186577    1.531992   -0.061942
C      -0.303247    0.088925    0.390775
O      -1.124105   -0.608730   -0.557790
C      -1.352573   -1.920634   -0.261973
C      -2.539270   -2.454072    0.171809
N      -3.731255   -1.867092    0.522136
O      -2.430526   -3.779391    0.289074
N      -1.116016   -4.173248   -0.073103
C      -0.511763   -3.055168   -0.393917
H       0.439980    2.096565    0.634698
H       0.262594    1.587894   -1.057450
H      -1.171979    2.004953   -0.103099
H       0.685588   -0.387881    0.441397
H      -0.756326    0.017457    1.389254
H      -3.849059   -0.951454    0.110452
H      -4.539840   -2.459011    0.388670
H       0.518879   -3.092658   -0.719427
