16

O      -0.164327    0.030547   -0.157435
C      -0.129470    1.213748    0.018987
C      -1.133507    2.325058   -0.041636
C      -0.848770    3.288941    1.061287
N       0.009187    3.350859   -0.116899
C       1.010861    2.246336    0.075807
C       2.130011    2.356196    1.124890
O       3.150416    2.217691    0.120230
C       2.168838    2.133521   -0.932457
H      -2.025106    2.379071   -0.654764
H      -1.532356    4.127421    1.152506
H      -0.441422    2.930683    2.004342
H       2.166899    3.329727    1.631178
H       2.169864    1.550974    1.867890
H       2.220949    1.180581   -1.470831
H       2.225147    2.973449   -1.633731
