17

C      -0.239094    1.372343    0.342206
O      -0.542434    0.026036    0.628247
C      -0.952906   -0.696529   -0.512782
C      -1.148668   -2.118079   -0.103520
O      -1.877526   -2.998695   -0.952059
C      -2.291296   -2.874164    0.411277
C      -1.314277   -3.745522    1.300059
O      -0.360335   -4.366125    0.441180
C      -0.170476   -2.995363    0.788288
H       0.075557    1.840629    1.277510
H       0.576027    1.458873   -0.393190
H      -1.114658    1.912408   -0.050326
H      -1.891314   -0.299968   -0.932514
H      -0.186717   -0.636156   -1.305885
H      -3.314345   -2.586803    0.619817
H      -1.513849   -4.186435    2.268263
H       0.758518   -2.688703    1.250588
