16

O      -0.034716    0.008040    0.379735
C      -0.003919    1.191604    0.125566
N       1.077887    1.862352   -0.365592
C       1.514103    3.263047   -0.071751
C       2.565055    2.652554    0.902616
C       2.509044    1.493327   -0.146542
C       3.115882    2.208947   -1.369722
O       3.964169    1.837591   -2.126770
C       2.349533    3.558386   -1.334088
H      -0.885742    1.859589    0.208962
H       0.755136    3.977661    0.242877
H       3.510497    3.183581    1.045034
H       2.131641    2.346840    1.855708
H       2.757239    0.456432    0.054287
H       1.742117    3.693066   -2.231777
H       3.031306    4.406639   -1.231821
