22

C      -0.919468    1.588338   -0.803947
O      -0.871660    0.181594   -0.843068
C      -1.747783   -0.419614    0.089097
C      -1.513394   -1.909480    0.113365
C      -2.562623   -2.917336    0.363621
C      -3.886805   -2.575083   -0.323737
C      -3.089670   -2.611346   -1.659607
C      -3.111459   -1.486869   -2.681488
N      -1.787758   -2.907159   -0.948425
H      -0.214918    1.960263   -1.551547
H      -1.924694    1.972562   -1.041097
H      -0.630114    1.979099    0.184669
H      -1.543895   -0.034135    1.103830
H      -2.790177   -0.160569   -0.142467
H      -0.548345   -2.153432    0.554059
H      -2.436206   -3.714109    1.090526
H      -4.632941   -3.368349   -0.251324
H      -4.360096   -1.633163   -0.030984
H      -3.336141   -3.541289   -2.182107
H      -2.829406   -0.517930   -2.269854
H      -2.406716   -1.713372   -3.488365
H      -4.111314   -1.403831   -3.122430
