13

N       0.225233    1.220411    0.223117
C      -0.241618    0.066717   -0.316336
O      -0.570989   -0.100780   -1.464511
O      -0.257561   -0.895941    0.659737
C      -0.662917   -2.158695    0.353426
C      -1.079429   -2.749636   -0.818080
N      -1.329295   -4.023252   -0.422083
N      -1.089013   -4.207345    0.883175
N      -0.679716   -3.062768    1.360323
H       0.172704    2.050393   -0.339670
H       0.349054    1.300841    1.217073
H      -1.205848   -2.386463   -1.818670
H      -1.658031   -4.797605   -0.976689
