21

C       0.136291    1.292307    0.074097
O      -0.229431   -0.016020   -0.303295
C       0.594670   -0.587148   -1.297740
C       1.902958   -1.220511   -0.733670
C       1.157668   -2.558568   -0.640164
C       1.673915   -3.956681   -0.512994
C       0.877539   -3.333075    0.612016
C       0.049356   -2.023836   -1.568439
O      -1.292553   -2.265176   -1.264957
H       1.145346    1.329048    0.508852
H       0.103339    1.980194   -0.784280
H      -0.582982    1.626369    0.825593
H       0.691167    0.096358   -2.152354
H       2.714135   -1.221203   -1.468968
H       2.273222   -0.791116    0.201168
H       1.197819   -4.731061   -1.107036
H       2.740206   -4.099224   -0.365841
H       1.402495   -3.053736    1.520058
H      -0.142735   -3.672156    0.759804
H       0.212541   -2.325934   -2.608787
H      -1.508065   -1.664128   -0.539167
