18

C      -0.137836    1.519353   -0.101331
C      -0.006033    0.018566    0.021556
C       1.322345   -0.666212   -0.206850
C       0.736625   -0.631439    1.173026
N       1.364899    0.152749    2.200667
N       2.389476    0.972186    1.988088
C       2.621005    1.506443    3.190653
C       1.705299    0.968089    4.100623
N       0.912524    0.112509    3.450229
H       0.762359    2.026827    0.253238
H      -0.296741    1.804483   -1.146596
H      -0.988695    1.888965    0.480766
H      -0.885284   -0.539367   -0.290724
H       1.354907   -1.623318   -0.715219
H       2.180722   -0.026638   -0.374793
H       0.321783   -1.533356    1.603390
H       3.414855    2.221578    3.334771
H       1.584321    1.142599    5.157653
