17

O       0.099055    1.327567   -0.154452
C      -0.031985   -0.052735    0.144246
C      -1.458568   -0.515744    0.115158
C      -2.588706   -0.106648    1.070038
C      -3.385425   -1.303294    0.477135
C      -2.008855   -1.895669   -0.038653
C      -2.123795   -0.913071   -1.226587
C      -3.603153   -0.886399   -0.993211
O      -4.565171   -0.798944   -1.701877
H      -0.292181    1.477192   -1.021851
H       0.576408   -0.678651   -0.529213
H       0.374651   -0.173981    1.154470
H      -2.297065   -0.282878    2.109459
H      -3.029288    0.890473    0.969787
H      -4.159588   -1.825060    1.032375
H      -1.584153   -2.887796   -0.043967
H      -1.569606   -0.933441   -2.156020
