19

C      -0.621147   -0.981163   -1.124662
C      -0.318383    0.050582   -0.587265
C       0.051061    1.312983    0.073804
C      -0.729424    1.432923    1.369795
C      -0.310917    1.344072    2.629456
C       1.092414    1.124037    3.130674
C       2.157924    2.031944    2.495693
C       2.412868    1.800148    1.029988
C       1.558644    1.481410    0.060133
H      -0.887709   -1.893940   -1.596968
H      -0.329380    2.115004   -0.582813
H      -1.795422    1.564192    1.197910
H      -1.074821    1.428711    3.399930
H       1.107063    1.278591    4.214912
H       1.382576    0.077089    2.970131
H       1.879534    3.081918    2.662881
H       3.101817    1.887608    3.034316
H       3.452190    1.916681    0.727252
H       1.966277    1.346899   -0.939612
