19

C       0.044250    1.537735    0.072306
C      -0.065042    0.025697   -0.020650
O       0.682511   -0.403461   -1.145916
C       0.729450   -1.801232   -1.317901
C      -0.414551   -2.403516   -2.096620
C      -0.000730   -3.113806   -3.147591
C       1.496700   -3.125512   -3.298236
C       1.960572   -2.166481   -2.193162
O       3.071584   -1.746808   -2.029412
H       1.090501    1.838025    0.175199
H      -0.360366    2.007895   -0.828338
H      -0.513632    1.906867    0.938139
H       0.329400   -0.450161    0.892585
H      -1.120427   -0.277675   -0.114162
H       0.853137   -2.293783   -0.336058
H      -1.449772   -2.264508   -1.808045
H      -0.655009   -3.638707   -3.834781
H       1.942406   -4.115848   -3.133287
H       1.852766   -2.789937   -4.279608
