12

N      -0.010194   -1.089365   -0.004305
C       0.018037    0.064048    0.001988
C      -0.004971    1.524488    0.010595
O       1.354288    1.985725   -0.001490
C       1.529638    3.296229    0.003658
N       2.675046    3.905318   -0.005666
C       2.265049    5.213523    0.005847
N       0.976630    5.420785    0.021534
O       0.459953    4.096028    0.019883
H      -0.541865    1.895145   -0.868930
H      -0.522628    1.884984    0.905739
H       2.954885    6.045501    0.002821
