23

C      -0.138353    1.539259   -0.093012
C       0.074076    0.026904   -0.033959
C       0.964536   -0.543123   -1.165852
C       1.192630   -2.004854   -0.690833
C       1.990333   -1.279079    0.434945
O       2.894016   -1.918808    1.280698
C       2.404987   -0.247616   -0.660503
C       0.871082   -0.545208    1.205192
C       1.376381    0.445400    2.253203
H       0.803951    2.094903   -0.102161
H      -0.686342    1.807740   -1.003109
H      -0.724125    1.896057    0.760148
H      -0.912193   -0.449740   -0.079588
H       0.668368   -0.320194   -2.190863
H       0.321520   -2.602383   -0.404926
H       1.840870   -2.572047   -1.365471
H       3.572415   -2.337204    0.741461
H       3.169154   -0.647336   -1.333716
H       2.669166    0.769055   -0.361445
H       0.260428   -1.294016    1.722822
H       2.020196    1.220220    1.826396
H       0.545018    0.946788    2.758821
H       1.960091   -0.086340    3.009950
