16

C      -0.020465    1.560865    0.055913
C      -0.008277    0.063482    0.030729
C       0.010226   -0.773130   -1.074364
N       0.021489   -0.448333   -2.431570
C       0.037472   -1.345224   -3.459517
O       0.044278   -2.553286   -3.326355
N       0.016324   -2.049763   -0.624032
N       0.003020   -2.116901    0.722835
C      -0.012079   -0.846225    1.112582
H       0.872066    1.996051   -0.411749
H      -0.896004    1.981901   -0.454803
H      -0.048590    1.923154    1.086879
H       0.017086    0.533936   -2.659379
H       0.043168   -0.844122   -4.443539
H       0.027887   -2.869812   -1.210921
H      -0.025207   -0.608149    2.166946
