21

C       0.062753    1.673230   -0.235242
C       0.068705    0.151956   -0.076805
O       0.913829   -0.240114    1.008180
C      -1.297609   -0.516292    0.061719
C      -2.319240    0.019451    1.038017
C      -2.564894    0.129893   -0.446051
C      -1.207898   -2.012090   -0.087703
C      -1.059089   -2.921744    1.051096
O      -2.313371   -2.791633    0.369609
H       1.096997    2.026001   -0.249374
H      -0.418314    1.984433   -1.166720
H      -0.448195    2.169862    0.597403
H       0.563152   -0.275609   -0.959405
H       0.471950    0.030903    1.820941
H      -2.905793   -0.709947    1.584239
H      -2.092927    0.928274    1.585723
H      -2.509397    1.110240   -0.903686
H      -3.313728   -0.527690   -0.873798
H      -0.807108   -2.341929   -1.049184
H      -0.557324   -3.879147    0.923350
H      -1.033865   -2.510101    2.057960
