20

C       0.021713    1.483878   -0.093824
C       0.011713   -0.028867    0.072869
O       0.051906   -0.568557    1.163064
N      -0.020987   -0.742000   -1.095592
C       0.014462   -2.168754   -1.125255
C      -1.015570   -3.161648   -0.503742
C       0.054048   -4.034000   -1.220849
C      -0.020547   -3.029634   -2.411628
C       1.139566   -3.111586   -0.596053
H       1.052361    1.846914   -0.021879
H      -0.394741    1.817154   -1.048507
H      -0.545004    1.928710    0.725534
H      -0.045370   -0.250378   -1.973695
H      -1.043099   -3.200510    0.585479
H      -2.017712   -3.156855   -0.942289
H       0.076729   -5.119396   -1.289350
H      -0.952241   -3.016669   -2.985454
H       0.857278   -2.974740   -3.062819
H       2.099323   -3.061652   -1.118675
H       1.262063   -3.147775    0.486773
