13

C      -0.033050    1.439643    0.000377
N      -0.008596   -0.016932    0.028470
N      -0.045158   -0.626511   -1.145533
N      -0.026946   -1.906639   -1.202836
C       0.031562   -2.583458    0.004578
N       0.070221   -2.075927    1.188505
C       0.050965   -0.687323    1.275120
N       0.080825    0.016271    2.334420
H       0.863042    1.827692    0.489700
H      -0.077704    1.744209   -1.044168
H      -0.901386    1.799525    0.556732
H       0.045337   -3.665940   -0.099470
H       0.122518   -0.606884    3.140014
