18

O       0.021199    1.392307   -0.171551
C       0.018553   -0.014047   -0.016851
C       0.585670   -0.535673    1.320451
C      -0.034966   -1.937184    1.468924
C      -1.401621   -1.829924    0.780679
O      -2.320537   -2.599253    0.889921
C      -1.401104   -0.552317   -0.022366
C      -2.594523    0.347460    0.048958
N      -2.311360   -0.418653   -1.166395
H       0.928441    1.681761   -0.308872
H       0.571333   -0.484684   -0.848661
H       1.679142   -0.539224    1.342334
H       0.233638    0.127975    2.117710
H       0.549777   -2.691781    0.926334
H      -0.134780   -2.289542    2.497723
H      -3.456966   -0.001059    0.609397
H      -2.405075    1.415312    0.057000
H      -1.867541    0.201451   -1.843553
