19

C      -0.216985    1.366511    0.162557
O      -0.332701   -0.028909   -0.042093
C       0.571884   -0.538366   -0.997987
C       1.979103   -0.649414   -0.415427
O       2.985821   -0.687647   -1.073867
C       0.081020   -1.931131   -1.395438
C      -1.201377   -1.929035   -2.253639
O      -0.462480   -2.315778   -3.430012
C       0.739436   -2.527625   -2.658701
H       0.779439    1.652252    0.531274
H      -0.414201    1.925577   -0.763958
H      -0.960896    1.643458    0.912424
H       0.614173    0.101216   -1.894153
H       1.990930   -0.737608    0.696105
H       0.055725   -2.576809   -0.514821
H      -1.943808   -2.684685   -1.966339
H      -1.701834   -0.961527   -2.370957
H       1.599700   -1.983351   -3.061438
H       0.993306   -3.592240   -2.578984
