14

O      -0.055272    0.485606    1.210396
C      -0.093012    1.130571    0.194698
O      -1.306675    1.501452   -0.294886
C      -1.426065    2.166128   -1.542860
O      -0.848432    3.431583   -1.537519
C       0.484119    3.469590   -2.003606
C       1.415083    2.468876   -1.397925
C       1.162298    1.500989   -0.512409
H      -1.012515    1.539092   -2.345322
H      -2.501320    2.292838   -1.676711
H       0.514256    3.353528   -3.101789
H       0.848093    4.482555   -1.792781
H       2.440688    2.570572   -1.750495
H       1.987484    0.890333   -0.161247
