15

C      -0.073086    1.552687   -0.002245
C       0.055086    0.029864   -0.002609
N       0.750043   -0.487699   -1.195640
C       2.112303   -0.800139   -1.111932
O       2.800594   -1.187156   -2.015767
C      -0.008615   -0.615074   -2.352328
O      -1.181000   -0.314535   -2.392209
C       0.636567   -1.142892   -3.557132
N       0.960011   -1.539818   -4.593073
H       0.909461    2.033427   -0.029903
H      -0.654447    1.889760   -0.862864
H      -0.586927    1.878021    0.906872
H       0.619833   -0.314646    0.867781
H      -0.930379   -0.437599    0.028385
H       2.486991   -0.644615   -0.084150
