17

C      -0.293734    1.433786    0.004648
O       1.059184    0.995010   -0.074109
C       0.020565   -0.006926    0.034274
C      -0.011788   -0.761258    1.306729
C      -0.104328   -2.088795    1.367078
C      -0.162942   -2.998161    0.169872
C      -0.279353   -2.270741   -1.151029
O      -1.447555   -1.463810   -1.333693
C      -0.181831   -0.805351   -1.217607
H      -0.572344    1.937580    0.929521
H      -0.702397    1.872429   -0.905175
H       0.056564   -0.169642    2.214984
H      -0.125715   -2.576085    2.338462
H       0.739976   -3.625425    0.146728
H      -1.003126   -3.699543    0.269449
H       0.000489   -2.846695   -2.033322
H       0.179421   -0.321189   -2.124415
