19

C      -0.019170    1.547515   -0.048724
C       1.411126    2.108645    0.031516
C       2.083553    1.764864    1.374585
C       1.863128    0.317359    1.700570
N       2.552336   -0.355742    2.619231
N       2.011716   -1.590920    2.592439
C       1.007023   -1.718623    1.689489
C       0.875962   -0.487671    1.079635
C      -0.030843    0.006206   -0.010901
H      -0.603841    1.935976    0.795640
H      -0.513432    1.897687   -0.961262
H       2.006251    1.691923   -0.791951
H       1.399431    3.194691   -0.108862
H       3.153895    1.994045    1.348843
H       1.654166    2.391758    2.168209
H       2.375116   -2.294521    3.211616
H       0.482059   -2.651819    1.555452
H      -1.054641   -0.362027    0.123359
H       0.304139   -0.377604   -0.985121
