16

C       0.042046    1.511930    0.040874
C       0.043815    0.023246   -0.044958
C       0.023799   -0.834384   -1.121596
O      -0.004127   -0.537304   -2.450123
C       0.036934   -2.183135   -0.637143
C       0.023944   -3.412404   -1.414117
O       0.036374   -4.530854   -0.937029
C       0.065091   -2.097052    0.747657
N       0.068922   -0.787505    1.087075
H       0.936665    1.905252    0.540294
H       0.020845    1.954985   -0.960047
H      -0.833553    1.901119    0.575971
H      -0.008737    0.418108   -2.564258
H       0.001059   -3.262632   -2.514291
H       0.081973   -2.886449    1.480454
H       0.087445   -0.437882    2.030026
