21

C      -0.019521    1.566831    0.013552
C       0.040055    0.041191   -0.024909
C       0.868730   -0.543301   -1.185914
C       1.124765   -1.995829   -0.745254
O       2.138811   -2.691781   -1.423177
C       1.423630   -1.824131    0.750011
C       1.946180   -2.915029    1.570181
O       2.832930   -1.906938    1.052133
C       0.672501   -0.595173    1.247371
H       0.986255    1.993499    0.101865
H      -0.475581    1.970810   -0.896362
H      -0.608255    1.920902    0.866752
H      -0.985040   -0.341053   -0.121590
H       0.368515   -0.472927   -2.155094
H       1.832832   -0.023167   -1.266343
H       0.198839   -2.575326   -0.865173
H       2.955995   -2.480276   -0.947841
H       1.812486   -2.894547    2.650674
H       2.070395   -3.903411    1.130363
H       1.391539    0.086695    1.713824
H      -0.079372   -0.841516    2.002837
