17

O       0.557810    0.777308   -0.865510
C       0.132659   -0.263133   -0.021632
C       0.122665   -0.068902    1.524403
C      -1.250695   -0.811190    1.579896
O      -2.296739   -0.226759    2.319548
C      -1.362832   -0.597422    0.073626
C      -2.446053    0.116538   -0.636027
N      -2.222050   -1.330246   -0.842932
H       0.075502    1.572679   -0.613897
H       0.725086   -1.136176   -0.315324
H       0.959791   -0.476413    2.094323
H      -0.020550    0.984729    1.783866
H      -1.133105   -1.875781    1.822887
H      -2.230233   -0.525451    3.231336
H      -3.356323    0.365911   -0.100557
H      -2.163798    0.802435   -1.431338
H      -1.732042   -1.477602   -1.723820
