16

O       0.525293    0.815168   -0.729481
C       0.149568   -0.340499   -0.044352
C       0.080240   -0.327058    1.497549
O       0.637070    0.337163    2.323504
C      -1.193131   -1.198008    1.498306
C      -1.330127   -0.805423    0.017171
C      -2.454669   -0.018188   -0.585819
C      -2.142224   -1.416411   -1.077518
H       0.312611    1.574248   -0.174480
H       0.790578   -1.158196   -0.399556
H      -0.974257   -2.259850    1.655974
H      -1.974942   -0.885513    2.194594
H      -3.355707    0.130435    0.000406
H      -2.185169    0.812949   -1.229672
H      -1.682020   -1.520270   -2.055261
H      -2.832598   -2.213202   -0.819832
