20

C       0.169886    1.575989   -0.003692
C      -0.001755    0.052520    0.004025
O       0.674668   -0.410637    1.167358
C      -1.484776   -0.395483   -0.008670
C      -2.290549    0.090123    1.199026
C      -3.672251   -0.550549    1.260559
O      -4.344263   -0.012535    2.387122
C       0.655353   -0.518337   -1.200401
N       1.156292   -0.995078   -2.126527
H       1.230682    1.829790   -0.049295
H      -0.338511    2.018473   -0.863482
H      -0.246717    1.992071    0.915426
H       0.642594   -1.374317    1.177300
H      -1.943251   -0.054957   -0.944616
H      -1.497665   -1.493418   -0.047324
H      -1.750755   -0.138900    2.123137
H      -2.423095    1.176557    1.167942
H      -4.223132   -0.342162    0.328314
H      -3.571515   -1.645870    1.338720
H      -5.220238   -0.406363    2.433655
