16

N       0.047854    1.320922    0.185224
C       0.060058    0.064977    0.023131
N       1.145873   -0.805772   -0.168041
C       0.752554   -2.182675   -0.063711
C       0.059310   -2.651295    1.204260
C      -0.741606   -2.148051    0.022199
N      -1.099993   -0.750452    0.010267
C      -2.422995   -0.341472   -0.022844
O      -2.832047    0.786676   -0.068887
H       0.993926    1.697497    0.143671
H       2.019664   -0.515649    0.245030
H       1.281284   -2.887483   -0.694919
H       0.039303   -3.720219    1.387225
H       0.115646   -2.026099    2.088759
H      -1.384329   -2.809200   -0.544747
H      -3.088117   -1.229941   -0.009216
