14

O      -0.360082    0.155075    0.645585
C      -0.040207    1.020045   -0.126603
C       1.306452    1.741340   -0.055943
C       1.520704    2.763466   -1.183187
C       1.525503    2.138304   -2.499619
C       1.522779    1.588317   -3.568301
C       1.451573    2.364237    1.332371
O       1.795484    3.500750    1.518774
H      -0.720512    1.370343   -0.931784
H       2.065242    0.947019   -0.105044
H       0.736305    3.528795   -1.130616
H       2.459725    3.296251   -1.003986
H       1.525458    1.120388   -4.521756
H       1.206888    1.671343    2.162299
