16

C       0.078364    1.394966    0.182355
C       0.081927   -0.087698    0.049484
C       1.149471   -0.980694   -0.419148
C       0.604665   -1.192901    1.011203
C       1.452392   -1.040086    2.201525
O       2.511986   -0.453652    2.195211
C      -0.786073   -1.713626    0.906693
N      -1.432256   -2.612168    1.491411
O      -1.196778   -0.772413   -0.041481
H       1.073405    1.739258    0.476193
H      -0.182091    1.863261   -0.772899
H      -0.646533    1.716088    0.934871
H       0.941890   -1.737883   -1.167892
H       2.155406   -0.572677   -0.403734
H       1.035534   -1.485723    3.127333
H      -2.405382   -2.637265    1.183142
