20

C       0.056163    1.458003    0.147484
C      -0.113115   -0.046595   -0.051053
C      -1.592509   -0.423278   -0.175798
C       0.713218   -0.544974   -1.248877
N       0.874626   -1.990558   -1.287539
C       1.499487   -2.464491   -0.059496
C       1.044558   -1.821062    1.250701
O       1.315462   -2.292370    2.322580
O       0.372626   -0.649367    1.189729
H       1.110208    1.709203    0.295060
H      -0.312690    2.003357   -0.726802
H      -0.501630    1.792718    1.025999
H      -2.052492    0.097070   -1.021685
H      -1.721331   -1.500263   -0.323306
H      -2.127319   -0.147014    0.736145
H       0.242828   -0.203167   -2.176490
H       1.713525   -0.094613   -1.207335
H      -0.024381   -2.441303   -1.418109
H       1.370090   -3.543728    0.045044
H       2.583504   -2.289112   -0.116320
