17

O       0.211118    1.371665   -0.105716
C       0.126788    0.000939   -0.058445
C       0.434319   -0.962047    1.130125
C      -1.062485   -0.946672    1.609087
C      -1.161214   -0.926094    0.065637
C      -1.860270   -0.890492   -1.272345
C      -0.821795   -0.880667   -2.125927
C       0.459101   -0.917127   -1.261058
C       0.075127   -1.867475   -0.084173
H       0.011612    1.728614    0.767173
H       1.333170   -1.010426    1.745603
H      -1.416359   -1.850359    2.114745
H      -1.406911   -0.057768    2.148903
H      -2.918533   -0.852178   -1.484942
H      -0.847151   -0.849486   -3.206298
H       1.430402   -0.932246   -1.758195
H       0.014869   -2.955306   -0.090161
