19

O       0.002558    1.447184    0.049745
C       0.056196    0.039103    0.073679
C      -1.350717   -0.563506    0.031741
O      -2.058281   -0.012718   -1.086330
C      -1.361760   -2.083850    0.015694
C      -0.984434   -2.807302    1.350057
C      -2.287012   -3.617130    1.216540
O      -2.720947   -4.579739    1.776551
C      -2.766298   -2.766075    0.030352
H      -0.686765    1.666300   -0.591041
H       0.639015   -0.360245   -0.778281
H       0.577652   -0.256820    0.990464
H      -1.907837   -0.201052    0.905293
H      -1.683350   -0.394465   -1.889421
H      -0.749620   -2.448632   -0.817462
H      -0.061117   -3.390949    1.375944
H      -1.000869   -2.146657    2.224604
H      -3.575264   -2.081100    0.306060
H      -3.077424   -3.322823   -0.857044
