16

C      -0.119788    1.534178    0.058464
C       0.026114    0.012595    0.028558
N       0.678449   -0.508306    1.223738
N       2.001019   -0.731600    1.234289
N       2.331605   -1.148526    2.428027
C       1.221588   -1.193571    3.200612
C       0.134474   -0.782299    2.447365
C      -1.233628   -0.646012    2.745627
C      -2.406129   -0.526033    2.993633
H       0.859445    2.011579    0.147513
H      -0.591427    1.877875   -0.866735
H      -0.742659    1.850783    0.899330
H      -0.949802   -0.472964   -0.053857
H       0.644215   -0.307335   -0.812417
H       1.245718   -1.514068    4.229140
H      -3.438348   -0.425840    3.223480
