20

C      -0.118394    1.514740    0.057581
C      -0.046848    0.023243   -0.000925
C      -0.043702   -0.771149   -1.074705
C       0.078685   -2.201274   -0.679654
C       1.316829   -2.647458    0.029656
C       2.623716   -1.893228    0.055882
O       3.386809   -2.210601    1.215896
N       0.121057   -2.243649    0.806145
C       0.066200   -0.830670    1.249797
H       0.792685    1.941229    0.496474
H      -0.249218    1.951323   -0.935959
H      -0.952069    1.845776    0.689873
H      -0.127567   -0.446144   -2.104993
H      -0.537166   -2.944463   -1.182476
H       1.469499   -3.724368    0.095820
H       3.237111   -2.208630   -0.795478
H       2.468095   -0.812204   -0.039835
H       2.812422   -2.104442    1.981088
H       0.946877   -0.563792    1.852348
H      -0.804035   -0.701400    1.908293
