19

C      -0.063481    1.621571    0.246730
C      -0.012738    0.088957    0.054366
C       0.792047   -0.546892    1.097375
C       1.445249   -1.061985    1.965457
C      -1.407141   -0.500733   -0.015542
C      -2.257730   -0.884366    1.181237
C      -1.945896   -1.903737    0.128203
O      -2.831430   -1.768276   -0.987947
C      -2.314807   -0.436261   -1.245255
H       0.943583    2.046123    0.251376
H      -0.631478    2.086180   -0.565335
H      -0.548649    1.870772    1.194178
H       0.477949   -0.112042   -0.909538
H       2.033502   -1.518329    2.722783
H      -1.698791   -0.991473    2.105438
H      -3.275383   -0.516858    1.283971
H      -1.469512   -2.863004    0.293006
H      -3.105497    0.323393   -1.263711
H      -1.760091   -0.415932   -2.191966
