16

O      -0.136931    1.418180    0.155780
C       0.057008    0.066830    0.005098
C      -0.937878   -1.034055    0.104848
C      -0.205340   -0.791350   -1.216317
C       0.904820   -1.846631   -1.207842
C       1.976088   -1.409492   -0.450523
C       1.138988   -0.804332    0.641995
N      -0.025999   -1.992989    0.794239
C       0.343809   -2.979166   -0.321729
H       0.437528    1.880034   -0.464825
H      -2.012283   -1.035207    0.240088
H      -0.695933   -0.422860   -2.106802
H       2.769650   -2.103823   -0.181377
H       1.568237   -0.546886    1.607424
H      -0.569688   -3.467132   -0.669343
H       1.077620   -3.710342    0.013094
