18

C       0.111884    1.602829   -0.036177
C       0.220560    0.082554   -0.005224
C       0.965276   -0.528796   -1.228024
N       1.765878   -1.583787   -0.588423
C       2.919103   -2.142591   -1.253610
C       3.957995   -1.147564   -1.602492
N       4.742014   -0.341010   -1.867118
C       1.787033   -1.270054    0.769247
N       0.968100   -0.390340    1.183239
H       1.105939    2.058676   -0.083554
H      -0.462796    1.936067   -0.906896
H      -0.386404    1.964953    0.866681
H      -0.789585   -0.344452    0.059784
H       0.294792   -0.944726   -1.985032
H       1.619139    0.213795   -1.709755
H       3.369578   -2.905218   -0.609737
H       2.610231   -2.648691   -2.175015
H       2.465985   -1.819447    1.417113
