22

C       0.764771    0.282153    0.871974
N      -0.269372    0.183152   -0.150257
C       0.282103    0.243844   -1.494638
C      -1.234626   -0.892175    0.060190
C      -0.662591   -2.314381    0.257460
O      -1.665514   -3.302353    0.147365
C      -2.220246   -0.531856    1.186955
C      -2.668218    0.909672    1.291812
O      -2.651352   -1.386360    1.935925
H       1.276839    1.245894    0.777179
H       0.317858    0.237001    1.870336
H       1.531665   -0.509243    0.811429
H       0.956537   -0.594958   -1.743921
H      -0.528497    0.257095   -2.229418
H       0.855509    1.170231   -1.607984
H      -1.864813   -0.937643   -0.841122
H       0.073354   -2.519260   -0.527143
H      -0.141766   -2.375724    1.224373
H      -2.259550   -3.136400    0.891503
H      -2.921849    1.308389    0.305161
H      -3.522893    0.973996    1.966599
H      -1.852556    1.532185    1.671374
