15

O       0.044276    0.035056    0.448662
C      -0.020013    1.193473    0.083584
C      -1.303134    1.871409   -0.186340
C      -1.385538    3.022881   -0.863355
C      -0.210587    3.773704   -1.421518
C       1.127335    3.298089   -0.895499
N       1.271365    3.307904    0.559289
C       1.220229    2.004113   -0.152932
H      -2.190672    1.347014    0.152738
H      -2.363917    3.454020   -1.064800
H      -0.228444    3.690330   -2.517915
H      -0.326412    4.844647   -1.206159
H       1.991321    3.581968   -1.492149
H       2.235862    3.500695    0.816969
H       2.129576    1.413971   -0.212970
