13

O      -0.264902    1.372261    0.055466
C       0.023030    0.048290    0.006533
C       0.094263   -1.055507   -1.003609
O       1.244375   -1.673898   -0.426105
C       0.940309   -0.962086    0.802907
C      -0.398277   -1.599917    1.276168
O      -0.821692   -1.986152    2.330250
C      -1.044846   -1.148152    0.007068
O      -2.344088   -1.151202   -0.387216
H       0.464665    1.869044   -0.336242
H      -0.077487   -1.104346   -2.071720
H       1.782133   -0.775578    1.462932
H      -2.893056   -0.931194    0.376243
