16

C      -0.055451    1.500669   -0.075453
C       0.108136   -0.001893   -0.045104
C       1.478897   -0.644654   -0.135422
C       0.701526   -0.674775    1.159017
O       1.087242    0.139609    2.221383
C       0.120984   -1.986060    1.629782
F       1.012326   -2.637069    2.406114
F      -0.984126   -1.812971    2.362944
F      -0.191334   -2.795077    0.605374
H       0.739066    1.993447    0.488720
H      -0.028909    1.867970   -1.106316
H      -1.011859    1.799620    0.365190
H      -0.688294   -0.560970   -0.527447
H       1.591818   -1.560799   -0.702422
H       2.337786    0.017988   -0.142791
H       1.831161   -0.285294    2.664088
