14

N      -0.142594    1.324837    0.412313
C      -0.061016    0.144727   -0.054235
O       1.186881   -0.328565   -0.410350
C       1.677427   -1.507702   -0.933651
O       2.864643   -1.549981   -1.114566
C       0.819493   -2.656421   -1.258452
C      -0.508305   -2.811691   -1.133912
C      -1.490523   -1.874885   -0.635100
C      -1.293167   -0.627194   -0.180607
H       0.783663    1.754437    0.449238
H       1.412137   -3.472407   -1.656218
H      -0.910823   -3.771169   -1.448859
H      -2.514112   -2.237811   -0.632669
H      -2.144961   -0.050361    0.160902
