19

C      -0.108495    1.319043    0.927644
C       0.610278    0.167105    0.218648
N       0.627931   -1.142911    0.849208
C       0.057914   -1.338078    1.947667
O       0.052207   -2.585387    2.491957
C      -0.437947   -2.704591    3.813834
C       0.728412   -2.624758    4.819439
C       0.270496   -2.801195    6.193768
N      -0.123825   -2.940480    7.270819
H       0.331180    1.534553    1.907558
H      -0.027717    2.227230    0.323166
H      -1.174216    1.110013    1.069827
H       0.178108    0.030210   -0.781246
H       1.657093    0.446169    0.040965
H      -0.484366   -0.597277    2.549982
H      -1.183223   -1.930486    4.034988
H      -0.927951   -3.678368    3.885262
H       1.466923   -3.395127    4.575595
H       1.231154   -1.655491    4.729488
