17

C       0.210243    1.397608    0.094426
C      -0.014447   -0.070747   -0.029070
C      -0.026863   -0.825004   -1.141450
C      -0.187876   -2.264614   -0.830996
O      -0.237283   -3.184043   -1.615749
C      -0.251962   -2.374086    0.692915
C       1.109567   -2.520194    1.425457
O       1.060840   -1.155500    1.898381
C      -0.197582   -0.928789    1.205488
H       1.072371    1.584061    0.746167
H       0.390673    1.871866   -0.872672
H      -0.651133    1.884375    0.568643
H       0.099745   -0.469657   -2.157416
H      -1.045093   -3.037199    1.034043
H       1.104910   -3.231897    2.257433
H       1.979169   -2.712217    0.786719
H      -0.969608   -0.557710    1.888881
