19

C      -0.064857    1.348884   -0.048336
O       0.003112   -0.073706    0.057599
C       0.712241   -0.526762    1.126388
O       1.245595    0.190679    1.945250
N       0.744091   -1.886001    1.120026
C       1.301919   -2.649825    2.232330
C       0.286361   -2.823724    3.370034
C       1.827949   -3.989189    1.713822
H       0.932907    1.780929   -0.162869
H      -0.667816    1.550880   -0.934495
H      -0.533940    1.785454    0.837415
H       0.157534   -2.355536    0.448305
H       2.137987   -2.051849    2.606625
H      -0.056939   -1.847674    3.722265
H      -0.584041   -3.399086    3.034121
H       0.737876   -3.354160    4.214771
H       2.573648   -3.840861    0.927911
H       2.287878   -4.559569    2.525587
H       1.013979   -4.599585    1.303151
