18

C      -0.005860    1.484856   -0.187309
C      -0.009895   -0.005905   -0.055172
C       0.332121   -1.113584   -1.113316
C       0.128898   -1.889114    0.228969
C       0.258027   -3.351595    0.550803
O      -0.760371   -4.094906   -0.098822
N       0.859309   -0.764360    0.969451
C      -1.108004   -0.989026    0.397507
O      -2.267401   -1.053592    0.662405
H       0.962080    1.852824   -0.542845
H      -0.772810    1.804170   -0.899713
H      -0.218560    1.951571    0.778713
H      -0.354013   -1.293881   -1.946293
H       1.376378   -1.086242   -1.441094
H       1.211150   -3.756487    0.193861
H       0.234597   -3.475912    1.644192
H      -1.607163   -3.780532    0.238402
H       1.821785   -0.743094    0.612051
