19

C      -0.032865    1.422259   -0.030644
C       0.031608   -0.075722    0.049262
O      -1.174673   -0.701150   -0.367867
C      -1.291520   -1.929153    0.359806
C       0.132010   -2.228451    0.818581
C       0.696502   -0.819050    1.153291
C       1.342744   -0.791756   -0.242145
C       1.095144   -2.280955   -0.417834
O       2.300149   -2.976916   -0.166532
H       0.913916    1.868432    0.286248
H      -0.235684    1.743666   -1.057113
H      -0.832544    1.806815    0.609758
H      -1.978855   -1.806629    1.210629
H      -1.699462   -2.690793   -0.314349
H       0.245743   -3.037539    1.539565
H       1.023399   -0.425443    2.106826
H       2.230798   -0.268459   -0.579295
H       0.640701   -2.607749   -1.365856
H       2.106224   -3.919763   -0.188196
