21

C       0.100356    1.511549    0.246681
C       0.018987    0.020059   -0.107583
C      -1.390053   -0.508827   -0.086787
C      -2.061847   -0.992407    1.169361
C      -1.912881   -1.957690    0.026013
C      -2.955629   -1.651479   -1.065829
O      -4.252912   -1.168942   -0.623913
C      -3.856450    0.211527   -0.841160
C      -2.423095   -0.217210   -1.211451
H       1.132701    1.872377    0.205438
H      -0.491198    2.115667   -0.449853
H      -0.284500    1.696617    1.254695
H       0.458318   -0.143533   -1.101052
H       0.629557   -0.559597    0.596081
H      -1.382998   -1.167624    1.998690
H      -3.051330   -0.664244    1.468148
H      -1.361368   -2.886200    0.122334
H      -3.029261   -2.366236   -1.888714
H      -4.419615    0.655589   -1.671583
H      -3.986905    0.830371    0.054384
H      -1.994387    0.151612   -2.142817
