22

C       0.003598    1.548502   -0.046649
C       0.066420    0.016863    0.054121
C       0.772740   -0.401515    1.352529
C      -1.337360   -0.610831   -0.058485
C      -2.189211   -0.145063   -1.257279
C      -3.139305   -1.326331   -1.535959
N      -2.348970   -2.456725   -1.086768
C      -1.343618   -2.146692   -0.211661
O      -0.621358   -2.957481    0.331990
H       1.006168    1.978407    0.046084
H      -0.415938    1.889363   -0.997905
H      -0.609944    1.968186    0.760131
H       0.658654   -0.355889   -0.794050
H       1.788424    0.006827    1.383865
H       0.234064   -0.010499    2.225073
H       0.821829   -1.487137    1.439140
H      -1.883164   -0.401686    0.874978
H      -2.730319    0.784919   -1.074616
H      -1.540918    0.009222   -2.127237
H      -4.076380   -1.231896   -0.967438
H      -3.399930   -1.414607   -2.595381
H      -2.617264   -3.418470   -1.222511
