25

C      -0.128133    1.533154    0.408356
C      -0.235674    0.007775    0.478742
C      -1.235898   -0.561212   -0.539901
C      -1.409355   -2.067944   -0.432794
C      -0.226472   -2.896871   -0.897368
O      -1.997637   -2.529962    0.800685
C      -2.738619   -2.714215   -0.414363
C      -4.084016   -2.035794   -0.516271
C      -5.137227   -2.745753    0.344814
H       0.584051    1.916519    1.145716
H       0.207491    1.863915   -0.581220
H      -1.096226    2.008328    0.603078
H       0.755885   -0.432243    0.318888
H      -0.552590   -0.299851    1.481786
H      -2.198496   -0.062355   -0.395559
H      -0.907659   -0.316606   -1.559221
H       0.676968   -2.647320   -0.332275
H      -0.425766   -3.962084   -0.757513
H      -0.018923   -2.716752   -1.957962
H      -2.760452   -3.757455   -0.746028
H      -4.005889   -0.990102   -0.206996
H      -4.397550   -2.037653   -1.568610
H      -6.109368   -2.250209    0.267052
H      -5.266394   -3.788370    0.034451
H      -4.835199   -2.744679    1.396310
