18

C       0.064108   -1.176610    0.001206
C       0.053665    0.023906   -0.005940
C       0.005878    1.478391   -0.015111
O       1.328450    2.004015    0.010164
C       1.377437    3.384209    0.002882
C       0.850963    4.420956    1.033411
N       1.577498    5.289184   -0.004222
C       2.670748    4.203692    0.026896
C       0.897936    4.408202   -1.062719
H       0.080423   -2.238494    0.007764
H      -0.526067    1.827818   -0.913786
H      -0.563804    1.837757    0.856096
H      -0.222684    4.618835    1.083598
H       1.314599    4.444039    2.022585
H       3.261526    4.206030    0.945767
H       3.302110    4.195030   -0.864537
H       1.405411    4.419357   -2.030344
H      -0.172328    4.605185   -1.163355
