17

C       0.072474    1.541249    0.060813
C      -0.027769    0.046879    0.016693
C      -1.215760   -0.637977    0.053212
N      -2.451844    0.058307    0.158566
C      -1.158293   -2.062762    0.036812
C       0.016130   -2.749308   -0.022507
C       1.288651   -2.062059   -0.098562
O       2.401679   -2.563278   -0.173281
N       1.140163   -0.664735   -0.077335
H       0.969782    1.860003    0.601397
H       0.121784    1.979747   -0.944413
H      -0.805155    1.953055    0.564325
H      -2.649202    0.635615   -0.651086
H      -3.225830   -0.582889    0.278309
H      -2.096723   -2.612184    0.077337
H       0.048175   -3.831483   -0.026349
H       2.018058   -0.164636   -0.118631
