15

C      -0.175203    1.586699    0.023193
C       0.064081    0.107891    0.091498
C      -1.075814   -0.919204    0.195075
O      -0.356237   -1.673754    1.202428
C       0.739091   -0.734582    1.202889
C       1.765866   -1.055087    0.132823
N       2.836105   -1.702398    0.088989
O       1.089665   -0.349777   -0.855545
H       0.760919    2.137499    0.148737
H      -0.602269    1.858426   -0.948118
H      -0.874786    1.898806    0.803946
H      -2.015972   -0.523553    0.597590
H      -1.267283   -1.495398   -0.715686
H       1.056703   -0.425563    2.198531
H       3.235274   -1.706752   -0.851818
