17

O      -0.018308   -0.126889   -0.041872
C      -0.048908    1.084608   -0.017176
C       1.164592    1.865552    0.168512
C       2.153869    2.534527    0.321345
C      -1.321487    1.906803   -0.132167
C      -2.575600    1.099239   -0.538035
C      -3.572937    1.375886    0.607272
O      -3.135142    2.583233    1.219719
C      -1.727405    2.516480    1.248639
H       3.039028    3.107637    0.457225
H      -1.130018    2.727659   -0.829328
H      -2.963000    1.454137   -1.495209
H      -2.339378    0.038003   -0.632039
H      -4.601967    1.525499    0.273055
H      -3.560063    0.552354    1.338331
H      -1.381042    1.863721    2.067400
H      -1.334367    3.521417    1.413412
