18

C       0.015943    1.412959    0.951214
C      -0.212694    0.413878   -0.178201
O       0.820506   -0.591932   -0.211806
C      -1.565193   -0.241393   -0.143299
N      -2.529757    0.125227    0.702340
N      -3.558777   -0.678564    0.414256
C      -3.287264   -1.565530   -0.589060
C      -1.988786   -1.309707   -0.982715
N      -1.232609   -1.880184   -2.013818
H       1.022609    1.831278    0.872420
H      -0.716369    2.222800    0.906643
H      -0.093231    0.927848    1.926669
H      -0.088821    0.925143   -1.141546
H       0.742633   -1.097255    0.606050
H      -4.412850   -0.586115    0.935496
H      -4.017492   -2.280550   -0.932491
H      -1.507914   -2.825921   -2.241784
H      -0.244153   -1.842095   -1.791444
