20

C      -0.083571    1.493130    0.017311
C       0.005117   -0.016742    0.021439
N      -0.223532   -0.733075    1.294558
C       1.132045   -0.694328    0.715413
C       1.641688   -2.006586    0.151953
O       0.610300   -2.777726   -0.442313
C      -0.102324   -2.128846   -1.453977
C      -1.543358   -1.808497   -1.173602
C      -0.518208   -0.696837   -1.222894
H       0.424745    1.918910   -0.854972
H      -1.128660    1.822628   -0.015493
H       0.380123    1.917414    0.914391
H      -0.297207   -0.060029    2.053633
H       1.888678   -0.076726    1.196917
H       2.450058   -1.796254   -0.569108
H       2.054529   -2.636709    0.946498
H       0.188623   -2.432918   -2.458735
H      -2.261154   -1.882470   -1.982980
H      -1.900824   -2.087790   -0.189813
H      -0.533081   -0.053171   -2.097290
