19

O       0.018388    1.353469    0.098931
C       0.065151   -0.019380   -0.002160
C      -0.952782   -0.865820    0.768900
C      -1.069728   -2.207745    0.048022
C       0.457398   -2.063747   -0.224018
C       0.538239   -1.055248    0.998190
C       0.536324   -0.852212   -1.171111
C       0.264922   -0.738711   -2.635234
C       1.664839   -0.497776   -2.085863
H       0.923207    1.685223    0.077933
H      -1.660712   -0.379213    1.427901
H      -1.284573   -3.018439    0.750156
H      -1.726472   -2.286275   -0.825855
H       1.097061   -2.929985   -0.380716
H       1.152690   -0.998383    1.884556
H       0.094923   -1.647597   -3.204387
H      -0.293235    0.122233   -2.989276
H       2.034265    0.524224   -2.084757
H       2.428078   -1.242694   -2.288169
