15

C      -0.078925    1.442145   -0.034599
C      -0.013323   -0.008759   -0.009876
C       0.049027   -1.211168    0.007671
C       0.115533   -2.630962    0.031050
N       1.119804   -3.335486   -0.315488
C       0.726641   -4.737194   -0.123183
C      -0.728091   -4.673979    0.411061
O      -1.016206   -3.260358    0.469625
H       0.689095    1.879716    0.612375
H       0.082850    1.824012   -1.048453
H      -1.054776    1.800047    0.309639
H       0.803442   -5.277632   -1.072917
H       1.412837   -5.221809    0.579847
H      -1.458974   -5.144959   -0.252378
H      -0.843663   -5.088685    1.416458
