20

C       0.024795    1.454521    0.308581
C      -0.073844   -0.069356    0.262112
C      -1.521609   -0.554446    0.238298
O      -2.472712    0.158755    0.505521
N      -1.690330   -1.854242   -0.148440
C      -0.786485   -3.022738   -0.181453
C      -2.016108   -3.924916    0.004737
C      -2.786783   -3.517721    1.238457
C      -2.882583   -2.670154    0.003014
H       1.067507    1.772370    0.397985
H      -0.395459    1.901191   -0.596671
H      -0.539665    1.848009    1.156364
H       0.461278   -0.475828   -0.604455
H       0.411898   -0.509273    1.144570
H      -0.294794   -3.142737   -1.152958
H      -0.031678   -3.052639    0.613046
H      -2.176300   -4.861805   -0.508995
H      -3.659558   -4.127489    1.450306
H      -2.271761   -3.139755    2.117607
H      -3.800866   -2.430470   -0.515966
