19

C      -0.223348   -1.230230   -0.148323
C      -0.107340   -0.034735   -0.076532
C      -0.017683    1.392541   -0.002713
C       0.471311    2.101250    1.263879
C       0.965897    1.286129    2.454421
C       2.460894    0.981680    2.326575
O       2.762363    0.436567    1.054202
C       2.640075    1.390047    0.016922
C       1.314100    2.128445    0.013463
H      -0.305324   -2.286609   -0.213109
H      -0.811803    1.910386   -0.534029
H      -0.074453    3.007119    1.505821
H       0.783484    1.836594    3.383034
H       0.414427    0.342277    2.519809
H       3.053339    1.897495    2.495309
H       2.774862    0.236028    3.062452
H       3.448249    2.138171    0.099843
H       2.786976    0.838632   -0.917334
H       1.333209    3.053576   -0.555441
