10

C      -0.030958    1.547750    0.031679
C       0.014854    0.009625   -0.020822
C       0.690991   -0.499546   -1.208576
C       1.252223   -0.895145   -2.195279
H       0.978993    1.966216    0.033738
H      -0.560824    1.950029   -0.835807
H      -0.545767    1.882255    0.937091
H       0.519201   -0.374254    0.874962
H      -1.006448   -0.390308    0.013406
H       1.745945   -1.256042   -3.062994
