17

C      -0.001019    1.223545   -0.120442
N       0.232706   -0.214536   -0.074811
C       0.614643   -0.748729    0.992994
O       0.854889   -0.220747    2.247240
C       1.056454   -1.562942    2.801008
C       0.851634   -2.183549    1.400794
C      -0.355930   -3.081582    1.121680
O      -0.578092   -3.182655   -0.266148
H       0.686958    1.677218   -0.842090
H      -1.016790    1.409174   -0.484713
H       0.124765    1.722766    0.846850
H       2.050980   -1.659305    3.240990
H       0.285957   -1.791224    3.542506
H       1.753264   -2.618127    0.962881
H      -0.181806   -4.096134    1.496212
H      -1.236007   -2.679704    1.652810
H      -0.581969   -2.278360   -0.615913
