23

C      -0.541045    1.309237   -0.203605
C       0.139473   -0.049524   -0.185558
O       0.303481   -0.449159    1.160619
C       0.832923   -1.744757    1.325313
C       2.331006   -1.905809    0.941373
C       2.808000   -2.933354    1.938426
C       1.939620   -3.101645    2.934835
C       0.734474   -2.195467    2.811793
C       0.776703   -1.034670    3.820677
H       0.066527    2.049000    0.325499
H      -0.685607    1.650937   -1.232968
H      -1.517293    1.255284    0.286483
H      -0.467744   -0.794285   -0.728311
H       1.113853    0.004225   -0.696979
H       0.250725   -2.454291    0.714079
H       2.471062   -2.218009   -0.099373
H       2.861331   -0.950357    1.061263
H       3.760015   -3.444333    1.843172
H       2.079077   -3.764814    3.782176
H      -0.200633   -2.746360    2.972006
H       1.692625   -0.446544    3.709860
H      -0.074181   -0.365222    3.675874
H       0.747068   -1.421650    4.844593
