20

C      -0.203346    1.487355    0.031705
C       0.165377   -0.000326   -0.046119
C       0.769699   -0.502425    1.227248
C       0.067315   -0.945318    2.485960
C       0.708502   -0.280815    3.686797
C       2.117494   -0.185239    3.145978
C       2.420708   -1.321298    2.238580
C       1.062645   -1.870695    1.785257
N       2.128192    0.033689    1.665075
H       0.676756    2.084228    0.288514
H      -0.592452    1.847269   -0.925402
H      -0.966511    1.665630    0.796576
H      -0.721916   -0.602302   -0.278267
H       0.875943   -0.160168   -0.866584
H      -0.987304   -1.188873    2.446615
H       0.277334    0.703458    3.899457
H       0.659598   -0.888830    4.596945
H       2.906289    0.327920    3.684961
H       3.388178   -1.794209    2.116832
H       0.833808   -2.857173    1.407031
