19

C      -0.298703    1.227763   -0.035051
O       0.245784   -0.061336    0.138471
C       0.759950   -0.610953   -1.035762
C       1.275820   -2.030814   -0.946844
C       0.053525   -2.908243   -1.270062
O      -1.084618   -2.060838   -1.414308
C      -0.212309   -1.156293   -2.134484
C       0.834652   -2.311612   -2.391242
C       1.553463   -2.829724   -3.592768
H       0.445822    1.933937   -0.436849
H      -1.167655    1.220455   -0.709200
H      -0.622094    1.579004    0.947393
H       1.505374    0.054412   -1.500509
H       2.150614   -2.399332   -0.426818
H      -0.081628   -3.926011   -0.928259
H      -0.727559   -0.527640   -2.858003
H       2.225983   -2.075789   -4.017448
H       2.162522   -3.700897   -3.328758
H       0.853101   -3.136741   -4.377298
