16

C      -0.029302    1.526678    0.043978
C      -0.006666    0.027960    0.010117
C      -0.030750   -0.684286   -1.130926
N      -0.009485   -2.066090   -1.152274
C       0.038180   -2.846441   -0.011776
O       0.057307   -4.058785   -0.029691
N       0.062496   -2.096546    1.150561
C       0.044381   -0.696041    1.282547
N       0.069206   -0.072152    2.399940
H       0.857218    1.917739    0.553088
H      -0.068862    1.942206   -0.966654
H      -0.892646    1.889885    0.610282
H      -0.068478   -0.211856   -2.105418
H      -0.028173   -2.575815   -2.020227
H       0.097615   -2.655095    1.991435
H       0.104049   -0.712350    3.194718
