14

C      -0.002571    1.456018    0.035207
C       0.016670   -0.031436   -0.006438
N      -0.028178   -0.691336   -1.134941
O       0.011705   -2.050082   -0.711203
C       0.075005   -2.000593    0.620517
O       0.125134   -3.125043    1.326601
C       0.110988   -4.348765    0.682890
N       0.160864   -5.372705    1.402918
N       0.082474   -0.811576    1.129772
H       0.899571    1.829463    0.528515
H      -0.058048    1.863152   -0.975207
H      -0.862242    1.804229    0.615176
H       0.056625   -4.269993   -0.402481
H       0.144386   -6.211020    0.824959
