22

C       2.632577    1.569697    0.462856
C       1.347111    1.359867   -0.345081
C       1.465894    0.381330   -1.480572
N       2.182303   -0.916214   -1.370248
C       2.554741    0.067071   -2.428270
C       1.551000   -0.060633   -3.605171
C       0.477828   -1.084091   -3.325519
C       0.409676    0.260594   -2.647825
C      -0.731959    1.222249   -2.816329
H       2.935951    0.662203    0.995554
H       3.461962    1.878604   -0.182230
H       2.487835    2.350505    1.214859
H       0.543137    1.031233    0.328519
H       1.020647    2.324990   -0.751534
H       2.872070   -0.816339   -0.626319
H       3.565776    0.449349   -2.495006
H       1.734171    0.349166   -4.590580
H      -0.239442   -1.207778   -4.132102
H       0.709558   -1.983326   -2.769994
H      -1.524134    1.046679   -2.077696
H      -0.411052    2.265768   -2.715176
H      -1.180724    1.113393   -3.809089
