23

C      -0.249253    1.518076    1.153961
C      -0.090640    0.071625    0.714717
C       0.933218   -0.352102   -0.399626
C       2.255232    0.100175    0.229029
C       2.141050   -0.299650    1.498872
C       0.755982   -0.966042    1.554349
C       0.271496   -1.548729    2.863119
C       0.848123   -1.807445    0.208754
C      -0.308120   -2.718677   -0.187080
H       0.713297    1.986056    1.374034
H      -0.743811    2.106784    0.372860
H      -0.873800    1.583181    2.052482
H      -1.082018   -0.339614    0.500970
H       0.757240   -0.153246   -1.457754
H       3.068723    0.606985   -0.270808
H       2.834252   -0.209513    2.324391
H       0.171372   -0.771270    3.629335
H      -0.705776   -2.029986    2.751167
H       0.970568   -2.300701    3.247262
H       1.787159   -2.362134    0.119374
H      -1.289199   -2.239559   -0.137777
H      -0.169197   -3.078356   -1.212942
H      -0.338287   -3.600763    0.462991
