21

C       0.029345    1.442142   -0.092992
C       0.033862   -0.062318   -0.112131
O       1.053390   -0.708803   -0.256040
C      -1.292828   -0.837379    0.002612
O      -1.052928   -2.185020   -0.305302
C      -1.966475   -0.732363    1.405347
C      -3.236344   -1.590824    1.404740
C      -1.005388   -1.174145    2.514621
O      -2.317379    0.649142    1.553879
H       1.050093    1.815429   -0.183849
H      -0.577800    1.816455   -0.925204
H      -0.449518    1.802450    0.820122
H      -2.000856   -0.399574   -0.718508
H      -0.085474   -2.246747   -0.392084
H      -2.997837   -2.635219    1.196296
H      -3.730466   -1.534994    2.382158
H      -3.936111   -1.230971    0.644802
H      -0.145915   -0.501297    2.584954
H      -1.514830   -1.176728    3.484543
H      -0.640255   -2.185821    2.320599
H      -2.806199    0.739950    2.378283
