15

C       0.072267    1.424428    0.001678
C      -0.041973   -0.056684   -0.005320
N      -1.128873   -0.769878    0.077116
C      -0.694371   -2.078754    0.025669
N      -1.591501   -3.120956    0.028654
C       0.675012   -2.105182   -0.083096
O       1.088756   -0.773101   -0.106714
C       1.608151   -3.138555   -0.160810
C       2.383023   -4.063017   -0.217040
H       0.695871    1.764451    0.834797
H       0.534969    1.784025   -0.923128
H      -0.922778    1.858955    0.096725
H      -2.470254   -2.895532    0.471459
H      -1.213426   -4.010961    0.317997
H       3.068911   -4.870497   -0.281519
