19

C      -0.016927    1.439022   -0.036290
C       1.270198    0.701031    0.032233
C       1.910093    0.524284    1.392945
N       1.147429    1.126128    2.510133
C       0.992324   -0.314650    2.205617
C      -0.191510   -0.641230    1.331903
C      -0.802898   -2.017357    1.367036
C      -1.586783   -0.820502    1.857068
N      -0.014353   -0.036344    0.008076
H      -0.314266    1.983911    0.853053
H      -0.353973    1.850873   -0.983691
H       1.913267    0.599191   -0.837312
H       2.989288    0.449544    1.464178
H       1.762087    1.234598    3.314008
H       1.346467   -1.047003    2.925258
H      -1.080591   -2.443488    0.410200
H      -0.434192   -2.729394    2.098615
H      -1.751319   -0.703704    2.922641
H      -2.395881   -0.459454    1.232080
