18

C      -0.374539    1.475133   -0.090679
C       0.144823    0.043433    0.101251
C       0.878765   -0.495593   -1.104199
N       0.129688   -0.938468   -2.316214
C       0.917099   -1.919561   -1.503784
C       2.292761   -2.185074   -2.094033
O       2.733167   -3.251904   -2.449269
C       2.989753   -0.865697   -2.090089
C       2.214999    0.065685   -1.520397
H       0.443759    2.179067   -0.273005
H      -1.059412    1.536414   -0.942201
H      -0.909878    1.815201    0.800364
H       0.811285    0.004636    0.971842
H      -0.694274   -0.626128    0.327334
H      -0.853012   -1.060166   -2.062709
H       0.397327   -2.709019   -0.973892
H       3.973767   -0.728226   -2.518948
H       2.469438    1.112404   -1.397904
