18

O       0.393072    0.977793   -0.769803
C       0.028359   -0.145580   -0.012289
C       0.491085   -0.130966    1.465881
C      -0.530399   -0.992604    2.250900
C      -1.568690   -1.490000    1.214420
O      -2.850262   -1.751768    1.722234
C      -1.500483   -0.432879    0.072090
C      -2.229033    0.774975    0.447368
N      -2.775606    1.735933    0.789244
H       0.021911    1.763065   -0.348816
H       0.476191   -0.997615   -0.534730
H       1.519272   -0.487470    1.556537
H       0.482100    0.903399    1.825416
H      -0.073728   -1.832074    2.779323
H      -1.048353   -0.389115    3.003709
H      -1.236536   -2.438823    0.779858
H      -3.192138   -0.941404    2.119830
H      -1.905444   -0.811079   -0.869601
