16

C       0.005000    1.806811    0.459936
N       0.236186    0.399223    0.704915
C      -0.630284   -0.456916    0.389160
O      -0.374071   -1.781289    0.746245
C      -0.189790   -2.683468   -0.269973
C      -0.002478   -4.064698    0.299649
O      -0.177061   -2.376464   -1.428528
C      -1.912700   -0.242928   -0.211676
C      -2.996792   -0.038584   -0.691164
H       0.806887    2.180241   -0.186085
H      -0.963220    2.038394    0.000120
H       0.089660    2.343830    1.411007
H      -0.897632   -4.362230    0.853399
H       0.185933   -4.767520   -0.510682
H       0.832871   -4.067533    1.005001
H      -3.951031    0.131012   -1.127160
