18

C       0.047496    1.501462    0.394559
C       0.102482    0.055171   -0.056515
O       1.079768   -0.408290   -0.609401
C      -1.128157   -0.756524    0.229798
C      -1.458069   -1.899220   -0.691200
N      -1.076051   -2.165814    0.671984
C       0.226492   -2.810018    0.915147
C       0.088524   -4.259588    0.827930
C      -0.011847   -5.453535    0.741957
H       0.960902    2.017863    0.098903
H      -0.823435    2.004437   -0.041448
H      -0.071874    1.552354    1.483225
H      -1.943139   -0.203894    0.690732
H      -2.497387   -2.088709   -0.945478
H      -0.730997   -2.092051   -1.477829
H       1.006200   -2.466785    0.223511
H       0.544770   -2.530256    1.926930
H      -0.098049   -6.509401    0.671100
