23

C      -0.463533    1.578374    0.746902
C      -0.326459    0.054224    0.849071
C      -1.559682   -0.667013    0.341676
C      -1.733610   -0.972798   -1.127067
C      -1.559458   -2.103442   -0.138987
C      -0.312308   -2.977706   -0.148241
C      -0.131516   -3.718228    1.188742
C      -0.440726   -3.983408   -1.278488
O       0.301804   -4.070162   -2.221637
H       0.432439    2.082886    1.121460
H      -0.618403    1.889361   -0.291352
H      -1.317761    1.937999    1.330994
H       0.555937   -0.265499    0.283751
H      -0.139137   -0.224202    1.894640
H      -2.469094   -0.374479    0.863282
H      -2.702232   -0.827364   -1.592345
H      -0.892451   -0.756435   -1.779626
H      -2.463403   -2.662062    0.097557
H       0.575138   -2.377517   -0.367639
H      -0.977135   -4.388004    1.383402
H       0.782781   -4.319382    1.192243
H      -0.077344   -3.003663    2.014639
H      -1.317728   -4.668201   -1.174021
