18

C       0.304095    1.580477   -0.191308
C      -0.009296    0.092397    0.051106
C       0.562561   -0.456540    1.305434
C       0.079251   -0.966313    2.466921
N      -1.235309   -1.197430    2.873962
N       1.124774   -1.360219    3.299893
C       2.186844   -1.065303    2.613456
N       3.496315   -1.185624    3.011786
O       1.965900   -0.521549    1.408777
H       1.384804    1.744562   -0.232502
H      -0.127732    1.922998   -1.137257
H      -0.096420    2.201772    0.615764
H      -1.094530   -0.059215    0.088568
H       0.342361   -0.491327   -0.811808
H      -1.891934   -0.505718    2.539079
H      -1.288683   -1.274000    3.881358
H       3.614838   -1.842815    3.768543
H       4.151597   -1.322645    2.255990
