27

C      -0.182554    1.687855    0.102853
C      -0.105774    0.157833    0.122043
C       0.517950   -0.451576    1.393992
C      -0.327544   -0.158185    2.641870
C       0.728913   -1.965873    1.183523
C       1.437023   -2.758133    2.298732
C       1.406735   -4.262061    1.990808
C       2.875455   -2.282102    2.511473
O       3.433512   -3.010180    3.598098
H       0.807769    2.135759    0.244536
H      -0.572616    2.045833   -0.855291
H      -0.837987    2.078335    0.887164
H      -1.112488   -0.261305   -0.016383
H       0.479498   -0.175596   -0.744671
H       1.500024    0.024183    1.530117
H      -1.316791   -0.625361    2.558681
H       0.143110   -0.540812    3.551988
H      -0.477907    0.915645    2.784141
H      -0.254566   -2.426805    1.014722
H       1.287934   -2.113847    0.248162
H       0.908554   -2.600651    3.247509
H       1.893939   -4.473349    1.030705
H       1.930057   -4.826044    2.765508
H       0.377019   -4.628682    1.927968
H       3.453282   -2.445205    1.585155
H       2.893185   -1.202664    2.722853
H       4.341137   -2.718310    3.720343
