17

O       0.043507    1.393735   -0.018673
C      -0.005479    0.016220    0.038698
C       0.260206   -0.719513    1.390724
C      -0.666960   -1.842496    0.819784
C      -1.383103   -0.719019    0.000263
C       0.137621   -2.690517   -0.131586
C       0.910095   -2.079253   -1.044668
C       0.900522   -0.606560   -1.031979
O       1.533139    0.115047   -1.781934
H       0.658547    1.597829   -0.745187
H       1.286475   -0.986526    1.652630
H      -0.213415   -0.175179    2.211652
H      -1.258916   -2.431129    1.519175
H      -2.114132   -0.174640    0.603412
H      -1.811370   -0.985592   -0.968574
H       0.081024   -3.772955   -0.065345
H       1.525779   -2.593730   -1.773151
