21

C      -0.042978    0.689812   -0.578190
C      -0.137437   -0.552211    0.318766
N       0.684876   -0.520186    1.537267
C       0.273970    0.475326    2.514306
C       2.071202   -0.611178    1.344109
C       3.111965    0.253121    1.618862
C       4.324313   -0.411862    1.264796
C       3.993255   -1.650731    0.779697
N       2.620365   -1.765141    0.830758
H       0.994678    0.875594   -0.871376
H      -0.636877    0.547086   -1.486779
H      -0.418977    1.584439   -0.072863
H      -1.176170   -0.713498    0.630997
H       0.152929   -1.435349   -0.260123
H       0.817178    0.308953    3.447962
H       0.452352    1.517135    2.200638
H      -0.797553    0.362838    2.709387
H       3.014937    1.251634    2.014414
H       5.323406   -0.012140    1.347885
H       4.601599   -2.453477    0.396177
H       2.096111   -2.603462    0.652082
