25

C       0.131798    1.547726   -0.300376
C       0.072920    0.055660   -0.053112
C       1.330555   -0.779862    0.002928
C       0.496843   -0.585786    1.250055
C       1.028215    0.196771    2.433799
C       1.873693   -0.666197    3.381149
C       2.409270    0.110849    4.586670
C       3.242797   -0.748779    5.527337
O       3.686186    0.071779    6.598756
H       1.019588    2.003983    0.146441
H       0.163475    1.760304   -1.374889
H      -0.746069    2.058384    0.111928
H      -0.776724   -0.425366   -0.532283
H       1.345365   -1.750213   -0.481697
H       2.277487   -0.248841   -0.045089
H      -0.100572   -1.447235    1.543325
H       1.633924    1.042888    2.087920
H       0.190406    0.632905    2.995703
H       1.269449   -1.515428    3.729953
H       2.709808   -1.101360    2.817510
H       3.026579    0.953254    4.250142
H       1.578654    0.544014    5.157831
H       2.635379   -1.591710    5.896978
H       4.095625   -1.181246    4.978076
H       4.213846   -0.469469    7.192927
