20

C      -0.172349    1.499757   -0.101092
C       0.056921    0.026978    0.015598
C       0.845684   -0.862190   -0.851849
C       1.706945   -1.770473    0.009927
O       1.287685   -1.523379    1.354461
C       0.006646   -0.898227    1.272599
C      -0.392841   -0.383736    2.630880
C      -0.962724   -1.780099    0.441649
N      -0.643918   -1.023368   -0.817062
H       0.641145    2.063000    0.369907
H      -0.225613    1.793392   -1.153663
H      -1.110868    1.800143    0.377743
H       1.211971   -0.532140   -1.817781
H       1.585041   -2.832464   -0.246120
H       2.769975   -1.520034   -0.084506
H       0.356069    0.318225    3.010052
H      -1.359430    0.125661    2.583915
H      -0.473188   -1.211135    3.342454
H      -0.756083   -2.855463    0.418249
H      -2.016490   -1.618531    0.683179
