20

C       0.111160    1.575377   -0.056321
C       1.302354    0.690083   -0.040755
C       2.137836    0.646846    1.227423
O       1.326927    0.755245    2.384997
C       0.466881   -0.364529    2.495157
C      -0.772978   -0.041168    3.353850
C      -1.633957    0.083159    2.061523
C      -0.457331   -0.520226    1.246241
N      -0.049515    0.118208   -0.004828
H      -0.068941    2.157390    0.843397
H      -0.226149    2.037157   -0.980646
H       1.857460    0.500979   -0.958864
H       2.729591   -0.283573    1.261111
H       2.837490    1.488715    1.252199
H       1.051656   -1.252625    2.778259
H      -1.067403   -0.872468    3.998485
H      -0.671299    0.859253    3.962934
H      -2.569222   -0.479546    2.037341
H      -1.848861    1.118332    1.789019
H      -0.631330   -1.578619    1.025267
