18

C       0.163346    1.573150    0.342251
N       1.587091    1.497146   -0.145065
C       1.367985    0.103977   -0.572854
C       1.873931   -0.532464   -1.845779
O       1.654211   -1.924062   -1.647459
C       1.941207   -2.219265   -0.274807
C       1.553511   -0.979977    0.526281
O       0.152427   -0.902076    0.897367
C      -0.098556    0.105095   -0.096890
H       0.088610    1.747024    1.419202
H      -0.449047    2.310439   -0.187432
H       1.743533    2.115912   -0.934017
H       1.327568   -0.235969   -2.745937
H       2.944345   -0.302039   -1.992360
H       1.371717   -3.108827    0.004099
H       3.016215   -2.421418   -0.143685
H       2.213116   -0.763083    1.370080
H      -0.982777   -0.108468   -0.701665
