21

C      -0.149307    1.536440    0.029897
C       0.018176    0.027633    0.111523
C      -1.320416   -0.699186    0.101754
O       0.854933   -0.484136   -0.991912
C       1.703595   -1.154142   -0.055358
C       2.163857   -2.534984   -0.438151
O       3.083279   -3.087501    0.486609
C       2.424792   -0.166787    0.810211
C       0.995301   -0.564581    1.137640
H       0.813149    2.051428    0.061349
H      -0.650109    1.809086   -0.904872
H      -0.762312    1.897180    0.862368
H      -1.879705   -0.452007   -0.805752
H      -1.173098   -1.781984    0.133104
H      -1.923331   -0.406993    0.968726
H       1.309717   -3.219594   -0.469932
H       2.577187   -2.489965   -1.458793
H       3.904059   -2.590517    0.411451
H       3.151300   -0.591523    1.495943
H       2.669207    0.819776    0.427414
H       0.714597   -1.016306    2.080222
