16

C       0.042697    1.481294   -0.011007
C      -0.035440   -0.010696    0.025755
N       0.523219   -0.909137   -1.088071
C       0.014346   -1.917416   -0.065808
C       0.664857   -1.007966    1.024608
C       2.108879   -0.963150    1.106211
C       3.301560   -0.911568    1.246497
C      -1.228293   -1.001966    0.019386
O      -2.413168   -1.022267   -0.108281
H       1.085095    1.808431   -0.063684
H      -0.494003    1.877596   -0.878616
H      -0.411838    1.905827    0.889237
H      -0.079283   -0.887262   -1.916549
H       0.130046   -2.989633   -0.202958
H       0.202133   -1.068503    2.013097
H       4.357745   -0.874323    1.350023
