16

O      -0.118688    1.405136    0.036225
C       0.003687    0.000579    0.006178
C       0.471225   -0.592111    1.345352
O      -0.576198   -0.392375    2.233973
C      -1.811147   -0.296973    1.475605
C      -1.393555   -0.630722    0.038752
N      -1.269925   -2.088671   -0.127479
C      -0.254449   -2.616796    0.416327
O       0.720349   -2.008325    1.141499
H       0.758627    1.791075    0.126717
H       0.606988   -0.351603   -0.838588
H       1.395646   -0.198917    1.771200
H      -2.528815   -1.015509    1.877482
H      -2.203862    0.720052    1.563763
H      -2.072794   -0.226237   -0.712005
H      -0.065516   -3.685197    0.339798
