19

C       0.048976    1.481538    0.112554
C       0.007837   -0.019758    0.066258
C       1.181959   -0.900504   -0.289203
C       0.571133   -1.046972    1.085408
C       1.309973   -0.782622    2.365209
O       2.201470   -1.831144    2.733560
C      -0.724082   -1.829483    0.953955
O      -1.824902   -0.974961    1.303483
C      -1.257048   -0.854892   -0.011434
H       1.027873    1.845896    0.439882
H      -0.144995    1.912242   -0.876878
H      -0.706395    1.868774    0.803787
H       1.078680   -1.694917   -1.023644
H       2.148450   -0.404247   -0.315838
H       1.938933    0.107380    2.256210
H       0.586695   -0.574857    3.168088
H       1.672362   -2.614434    2.914160
H      -0.894332   -2.898749    1.013268
H      -1.927332   -1.006894   -0.849832
