14

N       0.053179    1.472942    0.137834
C       0.032711    0.062637    0.035756
C      -1.094513   -0.672765    0.006503
F      -2.307733   -0.144674    0.009266
O      -1.154503   -2.007255    0.010948
C       0.013337   -2.796290   -0.022851
N      -0.072942   -4.061096   -0.060292
C       1.251156   -2.046884    0.000697
C       1.256564   -0.697685    0.039780
H       0.601942    1.898511   -0.601851
H      -0.881797    1.860957    0.106381
H      -1.045567   -4.366084   -0.065991
H       2.159378   -2.633875   -0.003818
H       2.192102   -0.148849    0.080433
