13

O       0.013537   -0.034645   -0.022206
C       0.006286    1.168039   -0.008099
N      -1.093984    1.983572    0.107575
C      -0.815517    3.400561    0.016280
C       0.711587    3.397568    0.022579
C       1.415960    2.748874    1.150116
N       1.184739    2.005101   -0.113247
H      -2.018559    1.588218    0.139260
H      -1.193108    3.838125   -0.917352
H      -1.246691    3.965245    0.852332
H       1.223382    4.137464   -0.583022
H       2.456618    2.985820    1.346303
H       0.837393    2.449992    2.020650
