20

C      -0.083728    1.542504   -0.046106
C      -0.002611    0.027582   -0.026096
O      -1.277076   -0.533529   -0.331160
C       1.263175   -0.675427   -0.619506
N       1.997632   -0.119886    0.585152
C       0.712167   -0.696463    1.162107
C       0.366120   -0.643296    2.620842
C       0.927713   -1.950456    0.228264
O      -0.061946   -2.870875   -0.086676
H       0.877236    1.984354    0.213881
H      -0.367295    1.894683   -1.046932
H      -0.848008    1.889860    0.656783
H      -1.628331   -0.079063   -1.103942
H       1.676118   -0.595024   -1.627081
H       2.772706   -0.749088    0.816444
H       0.344522    0.388515    2.985931
H      -0.618563   -1.091287    2.787871
H       1.095012   -1.202281    3.217322
H       1.823182   -2.521152    0.500278
H      -0.850260   -2.353946   -0.307089
