18

C      -0.008251    1.434431   -0.028593
C       1.468605    1.933846    0.016172
C       2.176758    0.678375    0.505331
O       3.545273    0.522076    0.144631
C       3.933350   -0.788285    0.228488
N       3.237703   -1.830594    0.399869
C       1.769157   -1.748489    0.452512
C       1.329025   -0.417433   -0.123027
O       0.009620    0.003360    0.149622
H      -0.618212    1.856686    0.775069
H      -0.482278    1.685708   -0.985500
H       1.831811    2.196335   -0.981506
H       1.600196    2.798871    0.668478
H       2.099040    0.596160    1.598202
H       5.014697   -0.855085    0.128910
H       1.365071   -2.599487   -0.104095
H       1.430812   -1.854480    1.490420
H       1.523563   -0.423039   -1.211073
