19

O      -0.690589    1.144648    0.945590
C      -0.074061    0.176033    0.097345
C       0.922004   -0.735827    0.863676
C       0.094340   -1.922342    1.323728
O       0.728790   -3.158239    1.506489
C      -1.222612   -1.656535    2.027982
C      -1.187008   -1.945212    0.535885
O      -1.693739   -3.149426    0.058079
C      -1.186554   -0.765509   -0.417210
H       0.004553    1.698535    1.315178
H       0.426328    0.685925   -0.736397
H       1.701776   -1.102568    0.186044
H       1.418526   -0.187269    1.674124
H       0.920113   -3.274318    2.442619
H      -1.603640   -2.473880    2.632022
H      -1.440911   -0.655251    2.380498
H      -1.054150   -3.829348    0.311995
H      -2.137920   -0.229582   -0.471908
H      -0.943300   -1.134274   -1.419030
