18

C       0.011554    1.524394   -0.025787
C      -0.002165    0.020094   -0.001525
C      -0.022067   -0.733597   -1.170741
N      -0.035708   -2.064214   -1.208465
C      -0.032954   -2.667806   -0.011840
N      -0.102829   -4.034869   -0.005798
N       0.000551   -2.061314    1.185904
C       0.014135   -0.728030    1.189370
C       0.051475   -0.057185    2.536042
H       0.902859    1.936979    0.462266
H      -0.000979    1.893758   -1.055384
H      -0.856876    1.952698    0.489097
H      -0.024276   -0.230167   -2.137517
H       0.130345   -4.495833   -0.869432
H       0.161059   -4.491554    0.851080
H       0.938940    0.578466    2.636531
H      -0.819119    0.594140    2.675850
H       0.061776   -0.810902    3.323900
