18

C       0.201759    1.349749    0.110574
O      -0.234981    0.039432   -0.168502
C       0.457065   -0.561237   -1.231789
C       1.844002   -1.173589   -0.879628
N       1.197420   -2.491381   -0.744255
C       1.881171   -3.656716   -1.249676
C      -0.010267   -2.014810   -1.444198
H       1.256730    1.379980    0.422221
H       0.083051    2.011333   -0.762583
H      -0.414970    1.729688    0.928482
H       0.441612    0.090362   -2.115947
H       2.550431   -1.109238   -1.724464
H       2.338661   -0.808591    0.027738
H       2.793783   -3.834036   -0.670347
H       1.241778   -4.539735   -1.142795
H       2.166452   -3.569637   -2.317437
H      -0.959229   -2.283516   -0.968832
H      -0.044554   -2.289803   -2.511198
