18

O       0.085517    1.357593   -0.271180
C       0.012008   -0.044852    0.008193
C       0.709545   -0.390199    1.351393
C      -0.292269   -0.340437    2.506625
C      -1.362037    0.757899    2.320061
C      -2.026606   -0.349166    1.473077
C      -1.493519   -0.395143    0.040935
O      -1.300418   -1.357397    2.238507
H       1.014890    1.608803   -0.277316
H       0.499143   -0.597092   -0.807816
H       1.125932   -1.403032    1.313610
H       1.546359    0.301111    1.514730
H       0.175252   -0.471232    3.486589
H      -1.912012    0.943130    3.243966
H      -1.079278    1.687845    1.829620
H      -3.109315   -0.489293    1.531922
H      -2.020113    0.307208   -0.612780
H      -1.656427   -1.406053   -0.346248
