15

C       0.058862    1.375126    0.174941
N      -0.042258   -0.031396   -0.171236
C      -1.241439   -0.684472   -0.076655
N      -1.337383   -2.003300   -0.009602
N      -2.678564   -2.219515    0.013243
C      -3.181586   -3.530478    0.080273
O      -4.344605   -3.809532    0.111247
N      -3.438043   -1.119001   -0.025262
C      -2.563599   -0.135128   -0.081118
H       1.085289    1.705269    0.004116
H      -0.589142    1.971276   -0.475474
H      -0.208225    1.591034    1.219971
H       0.751711   -0.605672    0.068115
H      -2.339306   -4.240464    0.098917
H      -2.884103    0.893768   -0.120988
