23

C      -0.210493    1.530003    0.157560
C      -0.025289    0.026022    0.030856
C       1.105693   -0.410644   -0.956578
C       1.919589   -1.021826    0.217358
C       0.755187   -0.697051    1.197593
O       1.086878    0.159491    2.272633
C      -0.115875   -1.894178    1.616256
C      -1.025856   -2.170664    0.405789
C      -1.335904   -0.762344   -0.137762
H       0.742692    2.033208    0.344277
H      -0.638695    1.942859   -0.763600
H      -0.881016    1.779682    0.985974
H       0.785641   -1.134570   -1.711072
H       1.596110    0.419506   -1.470758
H       2.184510   -2.079251    0.121952
H       2.819402   -0.453539    0.464360
H       1.606148   -0.345915    2.907223
H       0.471663   -2.766253    1.925307
H      -0.721564   -1.575968    2.473160
H      -0.489731   -2.761239   -0.346768
H      -1.924541   -2.734663    0.670684
H      -2.122911   -0.298086    0.470457
H      -1.689679   -0.770118   -1.174413
