20

C       0.011009    1.524187    0.249471
C      -0.065888    0.026233   -0.096066
C      -1.459676   -0.528126   -0.069821
C      -2.139447   -1.034976   -1.102561
C      -3.518736   -1.516824   -0.734746
C      -3.578254   -1.214548    0.750006
C      -2.277536   -0.579924    1.207490
N      -4.537632   -1.430429    1.554983
O      -5.629099   -2.024423    0.890375
H       1.045220    1.878648    0.204859
H      -0.582562    2.117696   -0.452938
H      -0.364769    1.724731    1.257671
H       0.368942   -0.142280   -1.087660
H       0.559293   -0.530611    0.616638
H      -1.751269   -1.107310   -2.113164
H      -4.325538   -1.002263   -1.274334
H      -3.676758   -2.587041   -0.925970
H      -1.785160   -1.174657    1.988930
H      -2.445553    0.412843    1.643899
H      -6.266666   -2.129303    1.604258
