18

C      -1.552948   -0.343529    0.139134
C      -0.080315    0.100599    0.067193
C       0.724962   -0.380762    1.293664
C       2.164203    0.171337    1.316605
N       2.150150    1.635378    1.366987
C       2.921279   -0.440910    2.428955
N       3.509315   -0.876773    3.323976
C       0.547088   -0.376219   -1.170631
N       1.056689   -0.761004   -2.134468
H      -2.019397    0.067307    1.038861
H      -2.110156    0.011005   -0.731046
H      -1.633012   -1.433653    0.175127
H      -0.028195    1.194592    0.045909
H       0.201823   -0.053727    2.199390
H       0.755915   -1.474318    1.316766
H       2.658715   -0.122183    0.383136
H       1.870756    1.949619    2.292368
H       3.082269    2.002853    1.204557
