17

C       0.014667    1.533715   -0.257796
C      -0.016357    0.030075    0.058047
C      -1.414868   -0.533063    0.057322
C      -1.854523   -1.450013   -0.892967
N      -3.099390   -1.941963   -0.904179
C      -3.911045   -1.510084    0.046647
O      -5.174899   -1.974802    0.081033
C      -3.491650   -0.586550    1.017891
N      -2.258607   -0.108467    1.016698
H       1.035409    1.923240   -0.199825
H      -0.368953    1.733161   -1.263727
H      -0.605941    2.082539    0.455633
H       0.596028   -0.519476   -0.665271
H       0.427249   -0.138655    1.046192
H      -1.186770   -1.806359   -1.673333
H      -5.259617   -2.590817   -0.660261
H      -4.177571   -0.251239    1.790570
