14

C      -0.025375    1.481250    0.037424
C       0.002234   -0.001806    0.015022
N       0.000624   -0.755306   -1.058666
N       0.031882   -2.059108   -0.616587
C       0.052506   -2.107204    0.734658
N       0.082823   -2.934477    1.765119
C       0.080944   -2.035017    2.798406
N       0.052349   -0.736882    2.496850
N       0.034003   -0.805550    1.132436
H       0.856799    1.878369    0.549655
H      -0.046832    1.856677   -0.986118
H      -0.907140    1.845195    0.574419
H       0.035283   -2.811972   -1.280359
H       0.101774   -2.355078    3.830435
