17

O      -1.134454    1.156383    1.574033
C      -0.264113    1.465327    0.802535
C       1.122655    1.946689    1.200406
N       2.133475    1.408504    0.332395
C       2.673477    0.051693    0.574301
C       4.058142    0.562480    0.108344
C       3.493404    1.987233    0.331164
C      -0.509573    1.408709   -0.658093
N      -0.772303    1.376282   -1.783784
H       1.113283    3.040991    1.089822
H       1.256718    1.721675    2.272913
H       2.664855   -0.227246    1.640404
H       2.194451   -0.743855   -0.004193
H       4.920489    0.272235    0.707679
H       4.253235    0.347950   -0.943134
H       3.666073    2.741110   -0.443227
H       3.787824    2.403709    1.307317
