20

O      -0.079027    1.423776    0.251570
C       0.000789    0.035179   -0.055387
C      -1.401852   -0.523412   -0.012792
C      -2.416216    0.074085   -0.988212
C      -3.642639   -0.778851   -0.584425
N      -3.126847   -1.659854    0.490080
C      -1.708303   -2.059746    0.083553
C      -1.343015   -2.076848    1.579162
C      -2.172323   -0.805463    1.326507
H       0.807102    1.793656    0.199736
H       0.421924   -0.124541   -1.062016
H       0.657314   -0.485651    0.656805
H      -2.549964    1.145929   -0.824839
H      -2.114279   -0.069736   -2.031523
H      -4.472313   -0.183918   -0.191286
H      -4.029647   -1.395529   -1.401203
H      -1.534518   -2.826437   -0.676308
H      -1.836770   -2.847880    2.171325
H      -0.294135   -1.955816    1.849640
H      -2.549476   -0.075745    2.045883
