18

C      -0.205037    1.505635    0.129069
C      -0.017431    0.008698    0.080448
N       1.262542   -0.513510   -0.392922
C       0.885495   -0.755502    1.011800
C       1.728763   -0.071345    2.068031
C       0.400911   -2.166470    1.273115
N       0.448806   -2.598583    2.563286
O      -0.004571   -2.877326    0.366370
H       0.719420    2.023013    0.392832
H      -0.519481    1.872496   -0.853951
H      -0.980868    1.781221    0.851650
H      -0.898143   -0.551597   -0.228446
H       1.091048   -1.382681   -0.899572
H       2.138204    0.861423    1.679267
H       1.146565    0.168968    2.966197
H       2.575501   -0.700876    2.362559
H       0.730605   -2.008299    3.324507
H       0.091082   -3.517648    2.764892
