23

C      -0.174430    1.429465    0.011573
O       0.037147    0.038778   -0.060903
C       0.741430   -0.522574    1.043868
C       0.168299   -1.912575    1.380122
C       1.377922   -2.783943    1.799610
C       1.275784   -4.250986    1.367022
C       2.535229   -2.030973    1.182703
C       2.208709   -0.809624    0.757383
C       3.099365    0.204368    0.112454
H       0.762653    2.004972   -0.016236
H      -0.776823    1.708860   -0.857189
H      -0.722032    1.712342    0.924334
H       0.652613    0.166739    1.900954
H      -0.625885   -1.878417    2.130517
H      -0.265632   -2.306722    0.454689
H       1.479760   -2.765468    2.895935
H       1.186492   -4.330131    0.278047
H       2.161246   -4.818152    1.674214
H       0.399778   -4.733621    1.813540
H       3.533220   -2.457046    1.124571
H       4.106920   -0.189703   -0.046274
H       2.694257    0.512631   -0.858152
H       3.184270    1.112491    0.723975
