19

C       0.375200    1.594271   -0.014926
C       0.043141    0.132486    0.224532
O       0.690314   -0.779113   -0.698013
C       1.313107   -1.577361    0.344777
C       2.799383   -1.715328    0.219951
C       3.492892   -2.858886    0.922526
C       3.385743   -2.856312   -0.577817
C       0.747429   -0.588681    1.383453
O       0.856119   -0.421115    2.559475
H       1.456113    1.758708    0.001590
H      -0.009152    1.915379   -0.987351
H      -0.085764    2.211497    0.762365
H      -1.045917   -0.023200    0.237233
H       0.842316   -2.570094    0.418706
H       3.333933   -0.771002    0.181746
H       4.456001   -2.658916    1.377122
H       2.879411   -3.559908    1.478308
H       2.696497   -3.552994   -1.042778
H       4.277542   -2.656727   -1.160688
