20

C      -0.229371    1.424909   -0.042195
N       0.062655    0.000159    0.034620
C       1.443885   -0.422171   -0.191822
C       0.822439   -0.514696    1.162765
C       1.329283    0.348432    2.325602
C       1.998542   -0.667716    3.265975
C       1.251512   -1.988066    3.034988
O       1.328526   -2.966948    3.730395
C       0.397287   -1.842994    1.772842
H       0.589202    2.077800    0.298549
H      -0.454320    1.680627   -1.082218
H      -1.117876    1.646677    0.557845
H       1.575768   -1.308870   -0.807884
H       2.195449    0.352722   -0.344210
H       2.004922    1.145787    2.011420
H       0.477016    0.820731    2.831132
H       3.044866   -0.837745    2.980035
H       1.995514   -0.393395    4.323317
H      -0.657400   -1.806392    2.077762
H       0.507764   -2.706642    1.113201
