18

O      -0.027471    1.352364    0.011929
C       0.066948   -0.038165    0.013590
C       1.098244   -0.711190    0.912186
C       0.561783   -2.121309    1.104167
C      -0.880242   -2.166316    0.705139
C      -1.204568   -0.856364    0.021891
C      -0.319831   -0.813519   -1.220433
C       0.327173   -2.183736   -1.364579
N       0.143527   -2.887600   -0.083163
H       0.664101    1.700406   -0.561689
H       2.108737   -0.699478    0.483172
H       1.140776   -0.189772    1.874935
H       0.971888   -2.727331    1.906773
H      -1.643321   -2.749736    1.206628
H      -2.183964   -0.400271    0.058670
H      -0.637552   -0.253707   -2.093979
H      -0.165510   -2.766234   -2.150854
H       1.395292   -2.136777   -1.607088
