20

O      -0.009646    1.305894    0.431376
C      -0.015440    0.015018   -0.159180
C      -1.406868   -0.549923   -0.223683
C      -2.501361    0.019148   -1.124016
C      -3.660384   -0.821311   -0.546807
C      -3.090205   -2.254700   -0.643691
C      -1.780736   -1.960818    0.080533
N      -2.019018   -0.896744    1.095259
C      -3.457940   -0.555811    0.956476
H      -0.420691    1.196571    1.297259
H       0.399237    0.135776   -1.165992
H       0.638010   -0.678581    0.390953
H      -2.633254    1.096515   -0.989085
H      -2.311300   -0.181852   -2.183490
H      -4.654105   -0.653705   -0.958811
H      -3.706620   -2.998391   -0.128721
H      -2.930668   -2.585754   -1.674689
H      -1.060268   -2.729280    0.334847
H      -3.624358    0.486745    1.243932
H      -4.059883   -1.201520    1.603320
