16

C       0.096376    1.465339    0.047974
N      -0.089610    0.020853    0.064022
C       0.538212   -0.753043    0.998539
C       0.765602   -2.101426    1.092259
C       1.407645   -2.239391    2.351628
C       1.895267   -3.492400    3.006694
N       1.563499   -1.089223    2.965951
O       1.003394   -0.126180    2.086634
H       1.126054    1.767061   -0.188836
H      -0.578346    1.893690   -0.696017
H      -0.161593    1.876601    1.025623
H      -0.179447   -0.419362   -0.837722
H       0.508765   -2.870175    0.383247
H       2.641574   -3.995307    2.382856
H       2.347033   -3.259013    3.972723
H       1.072104   -4.196780    3.165520
