20

C       0.049547    1.490559   -0.254783
C       0.049397    0.000430   -0.021245
N       1.366801   -0.675321   -0.046322
C       0.610093   -0.631578    1.196449
C       1.073713    0.035972    2.493857
C       0.103941   -0.916937    3.272595
C      -0.001340   -1.796334    1.980564
C       0.671996   -1.590974    4.487806
O       0.174438   -1.592612    5.584191
H       0.917329    1.956025    0.219680
H       0.094342    1.714998   -1.325728
H      -0.858666    1.951516    0.149144
H      -0.781849   -0.534498   -0.481632
H       1.295619   -1.595157   -0.475755
H       2.125972   -0.180747    2.707644
H       0.901781    1.107155    2.616105
H      -0.840750   -0.436660    3.531483
H      -0.998811   -2.144749    1.702222
H       0.674988   -2.658767    2.028120
H       1.639324   -2.117266    4.295018
