19

C      -0.013030    1.327505   -0.036578
O       0.009791   -0.079458   -0.083788
C      -1.271447   -0.654367    0.082501
C      -1.118842   -2.139855    0.056465
N      -0.410449   -2.936585    1.112246
C      -0.859000   -3.965820    0.118472
C      -2.216437   -3.229976   -0.120555
N      -2.113878   -3.179394   -1.615612
C      -0.694724   -3.053344   -1.145549
H       1.013461    1.676071   -0.173660
H      -0.643044    1.752670   -0.833849
H      -0.388486    1.697830    0.930509
H      -1.716554   -0.341360    1.041627
H      -1.953610   -0.347995   -0.727267
H       0.598453   -2.783721    1.036265
H      -0.671163   -5.035482    0.230197
H      -3.154341   -3.334156    0.425445
H      -2.274097   -4.110210   -2.009795
H       0.158910   -2.939596   -1.815923
