21

C      -0.881631    1.043360   -1.208034
C      -0.035808   -0.125651   -0.745824
O       1.326589   -0.044111   -1.199474
C       1.852881   -0.355988    0.116297
C       2.972017    0.577849    0.526128
C       0.442161   -0.237712    0.752299
C       0.155351    0.960719    1.655579
C      -0.072442   -1.499429    1.409143
O       0.530659   -2.537796    1.504756
H      -0.454802    2.000277   -0.899129
H      -0.935908    1.036334   -2.301291
H      -1.901966    0.965449   -0.817860
H      -0.497338   -1.065169   -1.087095
H       2.199849   -1.395768    0.152779
H       2.657876    1.624781    0.513151
H       3.333960    0.328041    1.529169
H       3.809016    0.467594   -0.170472
H       0.426159    1.905523    1.180820
H      -0.909155    1.010046    1.910262
H       0.717503    0.885890    2.592400
H      -1.112146   -1.408404    1.805239
