17

O      -0.130354   -0.029607   -0.059526
C      -0.001222    1.172192   -0.127320
C       1.269841    1.899989   -0.027700
C       1.353505    3.239899   -0.033646
C       2.768051    3.739307    0.073363
C       3.589446    2.455665    0.359785
C       2.636893    1.293563    0.054327
C       2.930377   -0.112847    0.355557
O       3.002343    0.377547   -0.988094
H      -0.886273    1.833773   -0.263927
H       0.499657    3.904856   -0.122464
H       3.065244    4.231539   -0.862409
H       2.876680    4.495328    0.858817
H       4.494091    2.374884   -0.246103
H       3.888026    2.427407    1.412224
H       3.890663   -0.358195    0.810386
H       2.112815   -0.799839    0.552168
