21

C       0.002501    1.479710    0.096017
C       0.033510   -0.037245    0.017768
C       0.694431   -0.556073   -1.260692
O       0.785814   -1.970681   -1.254745
C       1.507462   -2.427381   -0.119330
C       0.878698   -1.912046    1.152663
C      -0.201091   -2.694731    1.858381
C       1.175351   -2.529932    2.477830
O       0.766687   -0.511239    1.152888
H       1.016344    1.888698    0.045528
H      -0.584612    1.897276   -0.727610
H      -0.446992    1.800065    1.039491
H      -0.989669   -0.443833    0.062735
H       0.104372   -0.283589   -2.141017
H       1.698162   -0.106612   -1.355103
H       1.496659   -3.520091   -0.155963
H       2.553905   -2.082025   -0.174938
H      -1.010626   -2.124315    2.299229
H      -0.483971   -3.666437    1.468148
H       1.838961   -3.387630    2.513372
H       1.266740   -1.847957    3.315496
