17

C      -0.148635    1.546581    0.016918
C       0.069615    0.032116   -0.033542
C       0.926290   -0.482364   -1.207607
C       1.995678   -1.347990   -0.556247
C       1.909739   -1.336362    0.789753
C       0.792153   -0.479900    1.229261
O       0.484340   -0.209285    2.368303
C       2.947347   -2.044705   -1.332802
C       3.737775   -2.622056   -2.036084
H       0.806935    2.081395   -0.015075
H      -0.757264    1.889429   -0.825016
H      -0.653418    1.815669    0.948359
H      -0.909485   -0.463009   -0.045366
H       0.355938   -1.061750   -1.940985
H       1.400129    0.335917   -1.763174
H       2.563639   -1.855027    1.477908
H       4.442683   -3.137777   -2.640782
