13

N      -0.010724    1.226490    0.646587
C      -0.007003    0.091758    0.066361
C      -1.292300   -0.577121   -0.164352
C      -1.585683   -1.467914   -1.115972
C      -0.699403   -1.941153   -2.184356
O      -1.090782   -2.631663   -3.100866
N       0.672012   -1.596622   -2.166192
N       1.560394   -1.218920   -1.189330
N       1.266113   -0.514708   -0.208115
H       0.955935    1.537969    0.783713
H      -2.070330   -0.254337    0.520361
H      -2.589091   -1.869511   -1.200200
H       1.169483   -2.089129   -2.898582
