21

C       0.033688    1.355471   -0.098057
O      -0.091071   -0.021665    0.187882
C      -1.394465   -0.571559    0.100771
C      -2.310083    0.072068    1.136969
C      -1.894010   -0.803308   -1.401288
C      -0.793357   -1.916647   -1.471577
C      -1.254808   -2.146715    0.008637
C      -2.711455   -2.545460   -0.226174
C      -3.129327   -1.665515   -1.143972
H       1.104539    1.570685   -0.139034
H      -0.412853    1.619751   -1.067255
H      -0.417594    1.990183    0.676615
H      -2.508706    1.120113    0.891089
H      -3.269264   -0.438409    1.205565
H      -1.822492    0.045365    2.116968
H      -1.962368    0.007020   -2.127504
H      -0.982658   -2.735291   -2.168280
H       0.222269   -1.534283   -1.561617
H      -0.655929   -2.696899    0.734029
H      -3.252578   -3.333863    0.277537
H      -4.105399   -1.539169   -1.591118
