21

C      -0.206712    1.404919    0.212954
C      -0.056968   -0.109451    0.032833
C       0.879006   -0.694266    1.077845
O       0.360890   -0.534766    2.426225
C       0.462673   -1.941658    2.722001
C      -0.868509   -2.536047    3.146251
C       1.005266   -2.225431    1.287317
C       0.264946   -3.219060    0.432338
O      -0.158553   -3.026342   -0.679049
H       0.754029    1.917561    0.088774
H      -0.903615    1.819752   -0.520972
H      -0.583958    1.638016    1.212784
H      -1.034660   -0.595395    0.105167
H       0.334633   -0.347405   -0.961712
H       1.862523   -0.209121    0.996373
H       1.214141   -2.118605    3.503386
H      -1.623392   -2.429777    2.360905
H      -0.766462   -3.597313    3.397130
H      -1.230036   -2.010856    4.035673
H       2.045499   -2.573109    1.309964
H       0.155971   -4.219512    0.914059
