20

C       0.253058    1.642553   -0.109589
N       0.130396    0.203599    0.036132
C       1.122681   -0.760525   -0.393238
C       2.580098   -0.345510   -0.550629
C       3.007903    0.277558    0.803393
C       1.980356   -0.215889    1.856497
C       1.686394    0.807597    2.931865
O       1.733505    0.592617    4.115769
C       0.737246   -0.632739    1.054313
H       1.269033    2.053825   -0.037501
H      -0.147572    1.922202   -1.089875
H      -0.366179    2.128662    0.650726
H       0.752545   -1.563898   -1.027076
H       3.171857   -1.240724   -0.770231
H       2.734644    0.345922   -1.386377
H       4.023992   -0.009864    1.084682
H       3.003546    1.371000    0.750822
H       2.344441   -1.112292    2.370607
H       1.407955    1.815923    2.546208
H       0.054333   -1.318262    1.551030
