16

O       0.142625    1.423561   -0.172929
C       0.082669    0.027704   -0.096661
C       0.794228   -0.676758   -1.216531
C       0.039135   -1.604996   -1.804596
C      -1.352124   -1.704280   -1.218694
C      -1.307393   -0.729814   -0.033292
N      -0.838977   -1.294618    1.241319
C       0.316648   -0.566291    1.327520
O       1.133805   -0.390556    2.193135
H       0.447339    1.752498    0.680707
H       1.816442   -0.427511   -1.474224
H       0.367974   -2.246988   -2.614685
H      -2.120548   -1.430187   -1.952122
H      -1.587779   -2.722459   -0.884018
H      -2.180684   -0.083187    0.072417
H      -1.291806   -1.896106    1.913847
