16

C      -0.105700    1.599010    0.042842
C       0.021758    0.083891   -0.005622
C       0.874341   -0.620266   -1.134690
C       2.255677    0.006258   -0.894122
O       2.308012    0.005000    0.560475
C       1.063811   -0.615538    0.924829
C       0.965216   -1.768285   -0.099268
O       0.849181   -2.954837   -0.100423
H       0.869345    2.079985    0.142843
H      -0.594229    1.982551   -0.858598
H      -0.712682    1.898991    0.902856
H      -0.955530   -0.402155    0.075543
H       0.529152   -0.758872   -2.156387
H       3.074973   -0.597762   -1.299907
H       2.351964    1.031735   -1.265976
H       0.979600   -0.708070    2.004400
