16

C       0.264170    1.596634   -0.150260
C      -0.010851    0.074066   -0.106434
C      -1.508289   -0.240238   -0.085609
C       0.664156   -0.573614   -1.295356
O       0.115282   -0.958430   -2.298250
C       2.198261   -0.750217   -1.206377
O       2.848457   -0.501083   -0.224736
C       2.822330   -1.284458   -2.431289
N       3.365722   -1.688736   -3.368169
H       1.334391    1.817295   -0.140171
H      -0.178894    2.044877   -1.045165
H      -0.185411    2.071594    0.725927
H       0.478716   -0.319220    0.792416
H      -1.995271    0.130521   -0.991310
H      -1.689295   -1.317119   -0.029197
H      -1.978493    0.233371    0.780557
