9

O      -0.018084    1.457021    0.010088
C       0.003159    0.041319    0.002296
C      -1.364473   -0.461182    0.012641
C      -2.486345   -0.905852    0.020933
C      -3.756059   -1.408295    0.030333
N      -4.834568   -1.839315    0.038299
H       0.895288    1.761691    0.003705
H       0.511125   -0.359314   -0.890245
H       0.528004   -0.368816    0.880637
