15

C      -0.394570    1.068406   -0.158276
C       1.069331    1.053246    0.237198
C       0.347199   -0.224749   -0.016835
O       0.106225   -1.013147    1.143976
C      -0.884217   -1.880624    1.093520
N      -1.260679   -2.653574    2.070713
C      -2.287694   -3.335316    1.475103
N      -2.547439   -3.029981    0.233110
O      -1.581434   -2.024609   -0.037730
H      -1.112374    1.311690    0.616452
H      -0.674180    1.386005   -1.156039
H       1.817427    1.365997   -0.481611
H       1.303928    1.280607    1.270516
H       0.572331   -0.822137   -0.893065
H      -2.867319   -4.090402    1.987361
