19

C      -0.058067    1.505431   -0.114633
C       1.492621    1.501660   -0.087784
C       1.442738    0.090518    0.584344
C      -0.027057   -0.034729    0.065129
C       2.441128   -0.934320    0.209556
C       3.302400   -1.715515    0.919803
C       4.016707   -2.516143   -0.030999
C       3.536197   -2.163672   -1.249977
O       2.579667   -1.204096   -1.124887
H      -0.477003    2.007115    0.762634
H      -0.547805    1.901032   -1.006929
H       1.914391    1.432013   -1.093658
H       2.005323    2.297744    0.457280
H       1.451514    0.190224    1.673398
H      -0.757015   -0.494976    0.735232
H      -0.050682   -0.554663   -0.895931
H       3.414684   -1.719657    1.992978
H       4.780393   -3.250952    0.170471
H       3.752934   -2.478994   -2.257272
