18

C       1.183999    0.835638   -0.373635
N      -0.078441    0.273135    0.097326
C      -0.673082   -0.671491   -0.831096
C       0.051559   -2.000790   -0.999082
N       0.737042   -2.457505    0.055814
C       1.339096   -3.638898   -0.087101
C       1.264593   -4.375027   -1.262726
C       0.522749   -3.809137   -2.293197
N      -0.083016   -2.627103   -2.175005
H       1.962324    0.089243   -0.605176
H       1.002357    1.423690   -1.280550
H       1.582247    1.513760    0.386880
H       0.084577   -0.209088    0.975735
H      -1.694815   -0.900073   -0.495397
H      -0.772341   -0.211017   -1.818950
H       1.897949   -4.005968    0.771449
H       1.757778   -5.333322   -1.370506
H       0.411795   -4.317058   -3.249190
