21

C      -0.026556    1.520259    0.010948
C      -0.007872   -0.001510   -0.021517
C      -1.398979   -0.665628   -0.089000
C      -1.643132   -1.183315    1.346576
C      -0.261228   -1.691071    1.818333
C       0.727892   -0.689019    1.199857
C       1.795908   -1.194447    0.208733
O       1.126281   -1.997543   -0.774122
C       1.107883   -0.574919   -0.932972
H       0.979495    1.930704    0.155997
H      -0.421293    1.930256   -0.926224
H      -0.657350    1.888483    0.827426
H      -2.181309    0.021183   -0.426400
H      -1.371610   -1.512728   -0.780877
H      -1.972001   -0.355939    1.988750
H      -2.419774   -1.952865    1.395026
H      -0.186495   -1.755041    2.907460
H      -0.078779   -2.689250    1.408785
H       1.129517    0.035272    1.913549
H       2.846564   -1.403138    0.376214
H       1.492328   -0.176592   -1.866457
