14

C       0.010962    1.418027    0.008972
O       0.004811   -0.008308    0.003736
C      -1.197202   -0.623670    0.011805
C      -1.249671   -1.979458    0.008613
O      -2.430535   -2.630659    0.016156
C      -3.640197   -1.945829    0.027561
O      -4.672290   -2.560682    0.034028
C      -3.479574   -0.491287    0.030330
N      -2.340719    0.122963    0.022956
H       1.064438    1.700034    0.001384
H      -0.491479    1.823903   -0.874323
H      -0.476895    1.817299    0.903393
H      -0.389990   -2.635312    0.000082
H      -4.397132    0.090781    0.039270
