18

C      -0.247889    1.410544    0.078458
C       1.175938    0.919054   -0.048887
C       0.042962   -0.061277    0.029727
C      -0.170616   -1.113625    1.137602
C      -0.633905   -2.109088    0.046759
O      -2.054771   -2.056353   -0.192504
C      -1.883843   -1.152419   -1.310422
C      -0.368031   -1.053162   -1.068072
H      -0.560519    1.836409    1.026516
H      -0.708157    1.873192   -0.789273
H       1.676985    1.048184   -1.003376
H       1.829431    1.010603    0.813316
H       0.753495   -1.411007    1.644103
H      -0.939034   -0.896181    1.884159
H      -0.249456   -3.132020    0.064340
H      -2.163672   -1.635987   -2.255532
H      -2.461616   -0.227329   -1.193387
H       0.302999   -1.190571   -1.916103
