17

C       0.324012    1.480470   -0.207026
C       0.072043   -0.008483   -0.059633
O       0.941088   -0.835580   -0.899996
C       1.383532   -1.608244    0.233319
C       2.624368   -1.019245    0.917646
O       1.795377   -0.157856    1.746144
C       0.589176   -0.723271    1.212419
C      -1.369572   -0.358707   -0.394588
O      -2.258202   -0.408451    0.415851
H       1.334735    1.716091    0.132473
H       0.214567    1.783040   -1.252957
H      -0.392095    2.045034    0.398150
H       1.299294   -2.684509    0.079539
H       3.192068   -1.725498    1.535330
H       3.299069   -0.460487    0.261456
H      -0.137168   -1.015164    1.970283
H      -1.529196   -0.581917   -1.473263
