22

C       0.385483    1.482251    0.304029
C      -0.155114    0.113040   -0.130359
C       0.566295   -0.480606   -1.334821
C       0.441499    0.331642   -2.613850
C       1.871302   -1.212673   -1.103833
C       0.642523   -1.984990   -1.520677
C      -0.017575   -2.984831   -0.580817
C       0.615596   -4.303610   -0.654605
N       1.120117   -5.340809   -0.725548
H       1.456172    1.428573    0.527204
H       0.243788    2.240778   -0.471099
H      -0.129047    1.832129    1.204002
H      -0.081908   -0.569594    0.722869
H      -1.225939    0.201935   -0.359624
H       0.888732    1.325033   -2.505697
H       0.947078   -0.164614   -3.447716
H      -0.609935    0.467852   -2.893813
H       2.676808   -1.095852   -1.820752
H       2.209121   -1.330932   -0.078218
H       0.623843   -2.317639   -2.554824
H       0.029270   -2.647582    0.458837
H      -1.080855   -3.103127   -0.823522
