22

C      -0.245133    1.530271    0.049810
C      -0.191413    0.010906   -0.128462
C       0.924448   -0.444610   -1.079518
C       0.975122   -1.952216   -1.235889
C       0.134351   -2.665599   -2.268059
C       1.638238   -2.660404   -2.396920
C       2.312326   -1.927577   -3.526331
O       2.320190   -2.787683   -4.660730
H       0.697859    1.915503    0.453862
H      -0.424019    2.035337   -0.906134
H      -1.045597    1.824823    0.735725
H      -0.048817   -0.468783    0.848956
H      -1.154646   -0.353903   -0.506715
H       0.776089    0.033459   -2.055429
H       1.889463   -0.076527   -0.702957
H       1.077770   -2.471982   -0.285190
H      -0.365238   -3.590507   -2.002252
H      -0.420207   -2.048783   -2.969562
H       2.139158   -3.593271   -2.151805
H       1.780193   -0.990475   -3.749063
H       3.340532   -1.656187   -3.235279
H       2.820432   -2.353236   -5.358032
