14

O       0.345332    1.470032   -0.134726
C       0.085877    0.115458   -0.113794
C       0.427116   -0.633414   -1.432017
C      -0.948765   -1.369141   -1.392481
C      -1.284966   -0.662648   -0.069972
O      -0.784415   -1.425991    1.077600
C       0.383251   -0.702789    1.147876
O       1.225265   -0.749614    1.986580
H       0.339432    1.810892    0.766976
H       0.498574    0.088277   -2.248032
H       1.332230   -1.242727   -1.417418
H      -1.609736   -1.085011   -2.213818
H      -0.921295   -2.457140   -1.315904
H      -2.266656   -0.240110    0.135232
