16

N       0.027599   -1.170351    0.058258
C      -0.015711   -0.014448    0.039093
C      -0.081801    1.420583    0.029638
C      -1.140517    2.257011    0.775175
C      -0.655430    3.408939   -0.140990
C       0.776328    3.641993    0.387491
C       1.274488    2.261273   -0.070780
O       1.117284    2.366217   -1.515132
C      -0.276793    2.303238   -1.240255
H      -2.143621    1.901643    0.527193
H      -1.044681    2.384909    1.855841
H      -1.284544    4.265752   -0.366957
H       1.330445    4.428377   -0.127706
H       0.806991    3.808294    1.466931
H       2.236449    1.864214    0.244739
H      -0.928904    2.085140   -2.082973
