19

C      -0.005649    1.372961   -0.291548
O       1.224194    1.720673    0.376048
C       1.512598    0.338450    0.666253
C       0.176725   -0.127545    0.039542
C      -0.837495   -0.740576    0.983874
C      -2.265332   -1.110817    0.421388
C      -1.991792   -2.566119    0.818853
O      -0.807407   -2.978636    0.125245
C      -0.657008   -2.232011    1.338522
H      -0.875266    1.860944    0.168967
H       0.019507    1.630350   -1.358135
H       2.420682   -0.007287    0.156530
H       1.622982    0.158790    1.744390
H       0.292408   -0.770580   -0.834766
H      -0.933318   -0.133793    1.891141
H      -3.073037   -0.644695    0.990030
H      -2.429863   -0.950289   -0.647323
H      -2.689526   -3.343252    1.107817
H      -0.064661   -2.683944    2.126188
