21

C       0.139024    1.602873   -0.105517
C       0.018567    0.074641   -0.107147
C       0.833505   -0.606386    0.980537
C       2.062769   -0.059995    1.566766
O       0.826262   -0.003629    2.282019
C      -1.443124   -0.350930    0.039789
C      -2.397249   -0.127554   -1.155086
C      -2.604657   -1.653191   -1.089709
O      -1.609931   -1.789141   -0.054141
H       1.140442    1.925935   -0.402518
H      -0.569436    2.049610   -0.809742
H      -0.066971    2.002161    0.891460
H       0.372368   -0.323773   -1.068995
H       0.705052   -1.688309    1.002609
H       2.808378   -0.740645    1.976189
H       2.451172    0.900527    1.234456
H      -1.836271    0.019210    0.997294
H      -3.276109    0.489890   -0.965866
H      -1.899003    0.224381   -2.061527
H      -3.596719   -1.971071   -0.744399
H      -2.343751   -2.225198   -1.987702
