23

C       0.023747    1.332278   -0.248337
O      -0.019214    0.034107    0.298274
C      -1.280697   -0.572055    0.196955
C      -1.718789   -1.177486   -1.170226
C      -2.186394   -2.460092   -0.414847
C      -1.878626   -3.814927   -1.034231
C      -1.366196   -1.973773    0.796116
C      -0.200163   -2.677298    1.427716
C      -1.435599   -2.362672    2.240091
H       1.033164    1.719986   -0.090325
H      -0.189652    1.332681   -1.327859
H      -0.696919    2.004727    0.243894
H      -2.053863    0.100524    0.605123
H      -2.461059   -0.636208   -1.761394
H      -0.838273   -1.381573   -1.787328
H      -3.258418   -2.394395   -0.191661
H      -0.815782   -3.902671   -1.282841
H      -2.133280   -4.635644   -0.353505
H      -2.452673   -3.962350   -1.955647
H      -0.017501   -3.712579    1.158638
H       0.692973   -2.088889    1.603824
H      -1.372486   -1.573513    2.983288
H      -2.088182   -3.185504    2.516731
