23

O      -0.181789    1.363173   -0.811769
C      -0.031727    0.179760   -0.035618
C      -1.373971   -0.494133    0.054696
C      -1.837134   -1.420493   -1.043341
C      -1.509974   -1.972428    0.324694
C      -0.307368   -2.920489    0.522049
C      -0.816055   -4.029535    1.477832
C      -2.348109   -3.989815    1.342765
C      -2.639105   -2.486346    1.221467
H       0.659712    1.829103   -0.807563
H       0.701525   -0.502970   -0.493417
H       0.336858    0.420135    0.975666
H      -2.137477    0.139685    0.500596
H      -2.876434   -1.376932   -1.353693
H      -1.138698   -1.620034   -1.851365
H       0.004606   -3.348250   -0.436491
H       0.567973   -2.413283    0.939578
H      -0.387109   -5.009504    1.251029
H      -0.537247   -3.788761    2.510490
H      -2.659870   -4.504242    0.425433
H      -2.866087   -4.465830    2.180281
H      -2.577957   -2.019407    2.214129
H      -3.631780   -2.262535    0.819477
