20

O      -0.413124    1.306723   -0.021498
C      -0.058414   -0.063598   -0.000008
C       0.750978   -0.454288   -1.260288
C       0.065757   -0.120581   -2.506162
N      -0.475231    0.132401   -3.495067
C       0.687572   -0.471253    1.271146
C       1.986466    0.284842    1.685908
C       1.502190    0.217577    3.159643
C       0.069360   -0.076717    2.640490
H       0.393087    1.833958   -0.049197
H      -1.017257   -0.594492   -0.029085
H       1.723311    0.054695   -1.244712
H       0.960059   -1.530011   -1.250025
H       0.880126   -1.549754    1.234740
H       2.946855   -0.173328    1.438059
H       1.996230    1.318725    1.321843
H       1.930319   -0.641701    3.683177
H       1.645190    1.106649    3.777322
H      -0.522199    0.836726    2.539643
H      -0.522426   -0.830203    3.164933
