21

C       0.017895    1.412416    0.464818
C       0.098563   -0.039803    0.026185
O       1.135548   -0.536373   -0.350900
C      -1.200247   -0.833404    0.090049
C      -1.041319   -2.294376   -0.338426
C      -2.313605   -3.101492   -0.149857
C      -3.473730   -2.791396   -1.072616
C      -2.233441   -4.429821    0.476689
O      -2.681336   -3.298118    1.228180
H       0.998528    1.881378    0.376744
H      -0.708079    1.958107   -0.148431
H      -0.330890    1.478248    1.501499
H      -1.586615   -0.785078    1.116964
H      -1.943706   -0.306094   -0.523090
H      -0.722769   -2.342642   -1.385623
H      -0.235297   -2.742842    0.248461
H      -3.198211   -2.976397   -2.116530
H      -4.337044   -3.413257   -0.824280
H      -3.780120   -1.743543   -0.987669
H      -2.996431   -5.177419    0.260960
H      -1.264432   -4.832596    0.769209
