18

C       0.283051    1.646261   -0.220080
C       0.114514    0.205415   -0.097549
C      -0.047034   -0.984017    0.018851
C      -0.125009   -2.419233    0.083565
C      -0.422850   -3.329689    1.261708
C      -1.689642   -2.967272    2.057744
C      -2.463922   -1.812199    1.559316
N      -2.566299   -3.100389    0.838992
C      -1.310522   -3.376331    0.042960
H       1.322133    1.942901   -0.038269
H       0.009687    1.996270   -1.221851
H      -0.344165    2.183407    0.500312
H       0.668565   -2.878843   -0.508072
H       0.302423   -4.049934    1.617628
H      -1.946776   -3.491991    2.972280
H      -3.383945   -1.589588    2.093960
H      -1.985979   -0.960090    1.097972
H      -1.397142   -4.112534   -0.746731
