14

N       0.004846    1.354107    0.128410
C       0.017600   -0.009728    0.037330
N      -1.045397   -0.748656    0.013195
C      -0.663295   -2.176418   -0.010397
C       0.837308   -2.151821   -0.017154
N       1.907914   -2.933340   -0.042508
N       2.904086   -2.031093   -0.025181
N       2.568336   -0.737034    0.010606
C       1.241167   -0.816126    0.015721
H       0.818126    1.843899   -0.207573
H      -0.881009    1.793690   -0.070879
H      -1.079590   -2.691174    0.863813
H      -1.090240   -2.661054   -0.896296
H       3.869433   -2.320482   -0.037867
