15

O      -0.147889    0.151879    0.612883
C      -0.028867    1.238167    0.147828
O      -1.029518    2.052314   -0.340076
C      -0.069906    3.110295   -0.708816
C       0.090244    4.135082    0.446542
C       1.233061    3.268041    1.056116
C       1.085065    2.242000   -0.110721
C      -0.193985    3.538576   -2.072542
C      -0.273071    3.924811   -3.207887
H       0.422941    5.114054    0.098722
H      -0.815576    4.251016    1.043245
H       2.201425    3.769551    1.042637
H       1.065024    2.861436    2.054522
H       1.966209    1.908254   -0.653015
H      -0.352637    4.258392   -4.213474
