17

C       0.018414    1.484851   -0.182688
N       0.018748    0.022325   -0.052632
C       0.640625   -0.472599    1.120575
C       1.755990   -1.296245    1.130093
N       2.412611   -1.886805    0.056608
N       2.084271   -1.509457    2.423932
N       1.218859   -0.888274    3.297385
C       0.368476   -0.271311    2.500676
O      -0.645273    0.481716    2.983697
H       1.051675    1.839140   -0.250790
H      -0.497257    1.762170   -1.107582
H      -0.463822    2.003390    0.658314
H      -0.932436   -0.321974   -0.130399
H       2.028626   -1.513342   -0.805586
H       3.417856   -1.760739    0.071151
H       2.737407   -2.180469    2.786517
H      -0.581649    0.451179    3.946961
