13

O       0.095845    1.355201    0.097236
C       0.057835    0.002666    0.046373
C       0.027905   -0.788932   -1.099472
N      -0.005947   -2.107785   -0.660758
C       0.002826   -2.141294    0.698634
C       0.041918   -0.845529    1.175944
C       0.029738   -0.390047   -2.442295
C       0.032875   -0.001001   -3.586360
H       0.098948    1.689117   -0.808347
H      -0.032498   -2.903965   -1.272342
H      -0.019470   -3.078437    1.231159
H       0.057560   -0.536810    2.208457
H       0.035633    0.333404   -4.593805
