13

N       0.043429    1.367729    0.151754
C      -0.009728    0.005172    0.059679
C      -1.171511   -0.701778    0.035379
F      -2.344374   -0.054265    0.045833
C      -1.197682   -2.134990   -0.004130
N      -2.227710   -2.868127   -0.027525
O       0.102775   -2.701515   -0.019117
C       1.187872   -1.917556   -0.007733
N       1.220154   -0.643161    0.029811
H       0.912826    1.788171   -0.135248
H      -0.797069    1.875246   -0.072760
H      -1.978362   -3.855279   -0.057716
H       2.101192   -2.503845   -0.035415
