14

F      -0.029467    0.089801   -0.053422
C      -0.058211    1.422636    0.022839
F       1.198134    1.868370   -0.055234
F      -0.729192    1.884701   -1.045553
C      -0.750380    1.901794    1.289097
O      -0.035883    1.408574    2.387359
C      -0.604417    1.807842    3.624913
C       0.177750    1.266824    4.725846
C       0.803325    0.834660    5.654576
H      -0.773297    3.002257    1.265704
H      -1.788012    1.534475    1.266658
H      -0.635130    2.908315    3.692231
H      -1.646711    1.454324    3.696696
H       1.363185    0.449000    6.470581
