21

C      -0.120688    1.448537   -0.099474
N       0.124944    0.020891   -0.226749
C       1.037084   -0.545583    0.751217
C      -0.466825   -0.661737   -1.259606
O      -1.105014   -0.085301   -2.132356
C      -0.296901   -2.161291   -1.276935
C      -1.078869   -2.924583   -2.294027
N       0.362945   -2.832315   -2.417679
C       0.897362   -2.022242   -3.511468
H       0.801042    2.020864   -0.265703
H      -0.860799    1.739017   -0.842451
H      -0.490642    1.681852    0.906531
H       1.881002    0.139233    0.894573
H       0.555694   -0.690635    1.728356
H       1.442805   -1.497334    0.413015
H      -0.091687   -2.643590   -0.327068
H      -1.473241   -3.903753   -2.033955
H      -1.691653   -2.320217   -2.958204
H       0.294071   -1.139215   -3.754302
H       1.910909   -1.698995   -3.251701
H       0.965261   -2.661605   -4.397103
