15

O       0.676663    0.922748    1.251021
C       0.625258    1.706608    0.344163
C       1.261799    1.439851   -1.021190
N       1.299391    2.625545   -1.860133
C       2.228905    3.604182   -1.638473
C       2.673396    4.666538   -2.381687
C       3.594160    5.292370   -1.507010
N       3.714938    4.689277   -0.350924
O       2.826452    3.587359   -0.439914
H       0.085588    2.676556    0.416202
H       2.250885    0.993833   -0.857730
H       0.641508    0.689958   -1.523083
H       1.029896    2.510343   -2.822701
H       2.387505    4.951098   -3.379352
H       4.186408    6.179508   -1.687054
