13

C       0.073602    1.373768    0.093533
N      -0.042469   -0.070757    0.043435
N      -0.253371   -0.730372   -1.081785
N      -0.325069   -2.001778   -0.755596
C      -0.138355   -2.036933    0.579436
O      -0.162544   -3.150570    1.335925
C       0.175249   -4.350365    0.738917
O       0.083241   -5.368962    1.340191
N       0.043608   -0.842794    1.124203
H       1.045426    1.648881    0.507607
H      -0.022596    1.740136   -0.927523
H      -0.719666    1.784075    0.721459
H       0.520992   -4.220971   -0.295836
