19

C      -0.507981    1.451214    0.133613
C       0.020529    0.025466    0.056653
C       0.580489   -0.612897   -1.268189
C       1.039508    0.400926   -2.329451
C       1.706160   -0.241262   -3.456242
C       2.253547   -0.797299   -4.370611
C       1.761431   -1.238745   -0.461722
C       1.377321   -0.308846    0.700305
O       1.949510    0.099014    1.669429
H       0.203382    2.173699   -0.276532
H      -1.453596    1.558293   -0.407276
H      -0.683358    1.724625    1.178138
H      -0.719453   -0.665500    0.482850
H      -0.088717   -1.339072   -1.732283
H       0.176764    0.974279   -2.690925
H       1.722048    1.132659   -1.875935
H       2.738101   -1.275167   -5.185601
H       1.606197   -2.291488   -0.205860
H       2.768499   -1.125461   -0.870802
