17

C       0.156824    1.555614    0.074027
C       0.020537    0.054644    0.159613
O      -0.041808   -0.556492    1.198076
C      -0.064781   -0.682563   -1.192066
C      -0.700822   -2.093070   -1.137434
C      -1.847348   -1.454688   -1.944707
O      -1.157991   -0.177078   -1.997664
C       1.242157   -0.621642   -1.967750
O       2.320029   -0.412233   -1.476640
H       1.167732    1.797371   -0.272937
H      -0.550491    1.959602   -0.655790
H      -0.004199    2.000191    1.056501
H      -0.145282   -2.875631   -1.656668
H      -0.925191   -2.409805   -0.119955
H      -2.010889   -1.859154   -2.948683
H      -2.808961   -1.371354   -1.427148
H       1.104404   -0.799971   -3.058188
