16

C       0.079990    1.461780    0.066010
C      -0.026838   -0.033354    0.019017
N      -0.073525   -0.556654   -1.162066
O      -0.167811   -1.935638   -1.259461
C      -0.270835   -2.690776   -0.144285
C      -0.202520   -2.215214    1.116265
N      -0.228093   -3.024647    2.259051
C      -0.036446   -0.779442    1.287925
N       0.096339   -0.132782    2.394096
H       0.988283    1.753189    0.601168
H       0.090810    1.870207   -0.944936
H      -0.758117    1.879727    0.631596
H      -0.397323   -3.736653   -0.402316
H      -0.445410   -3.993690    2.064087
H      -0.859660   -2.671533    2.969954
H       0.139767   -0.777410    3.185292
