16

C       0.211930   -1.195219    0.090006
C       0.057722   -0.004117    0.052285
C      -0.144620    1.445243    0.016826
C      -0.774903    1.994137    1.313538
C       0.465758    2.276370    2.168409
C       1.460273    2.784229    1.105119
O       1.124773    2.122482   -0.110741
C       1.365060    4.247985    0.919720
N       1.285596    5.393190    0.788294
H       0.350348   -2.248248    0.112223
H      -0.738203    1.708105   -0.864872
H      -1.311195    2.922124    1.095253
H      -1.466865    1.286761    1.770903
H       0.296852    2.999066    2.967506
H       0.853226    1.351426    2.603417
H       2.498058    2.543295    1.358231
