20

C       0.034284    1.575689    0.066942
C       0.029982    0.042887    0.017663
C       0.638962   -0.500485   -1.239253
C       0.223693   -0.300507   -2.724860
C       1.610822    0.319688   -2.949774
N       2.103071   -0.173015   -1.611624
C       2.366554   -1.656264   -1.698431
C       0.863132   -1.974640   -1.669170
O       0.244897   -1.728766   -2.954105
H       1.054841    1.955857   -0.034845
H      -0.570171    2.000792   -0.741499
H      -0.374329    1.938487    1.014227
H       0.588294   -0.354475    0.875480
H      -0.994608   -0.341236    0.107370
H      -0.681775    0.168987   -3.117720
H       2.176884   -0.032088   -3.817054
H       1.588932    1.414870   -2.946270
H       2.929382   -1.983523   -2.577287
H       2.883367   -1.985375   -0.790285
H       0.480621   -2.879946   -1.190802
