18

C      -0.914759    0.513559    0.668485
N       0.216261   -0.128904    0.010454
C       1.329109    0.722825   -0.366038
C       1.479031   -0.253475    0.765155
C       1.608988    0.220806    2.116288
C       1.713853    0.577225    3.262097
C       1.850132    1.022310    4.650247
C       1.449641    2.415455    4.858895
C       1.120708    3.555439    5.041598
H      -0.632325    1.346223    1.328982
H      -1.591913    0.891055   -0.103767
H      -1.452869   -0.229665    1.264365
H       1.795472    0.511191   -1.324768
H       1.288232    1.775679   -0.091736
H       2.001156   -1.186423    0.563931
H       1.256076    0.373307    5.308863
H       2.892679    0.893324    4.973189
H       0.830451    4.564450    5.199967
