20

C       0.021589    1.382222   -0.032221
O      -0.002151   -0.031695   -0.005128
C       0.630694   -0.577337    1.106991
C       2.182626   -0.496004    1.200319
C       2.220329   -1.956030    1.731518
C       1.731954   -2.059939    3.188771
N       0.288512   -1.941372    2.783966
C      -0.053444   -0.505041    2.492601
C       0.718960   -2.114847    1.328492
H       1.048656    1.774188   -0.064476
H      -0.502919    1.695337   -0.937534
H      -0.488103    1.817205    0.840135
H       2.596639   -0.446489    0.188631
H       2.636203    0.285149    1.818654
H       3.036312   -2.597985    1.398476
H       1.903747   -3.050583    3.622057
H       2.075527   -1.301681    3.902307
H       0.315681    0.215131    3.231153
H      -1.139501   -0.400956    2.396807
H       0.263007   -2.886692    0.710918
