17

C      -0.147819    1.436200    0.111231
C       0.017821   -0.036047   -0.045474
N      -0.182716   -0.712347   -1.103152
C       0.111383   -2.111047   -0.766160
C       0.520168   -2.069394    0.710684
C       0.158147   -3.077837    1.751260
C       1.610361   -2.870608    1.343428
O       0.427208   -0.689776    1.080723
H       0.798398    1.894429    0.415875
H      -0.477475    1.869238   -0.832496
H      -0.881949    1.654640    0.893138
H      -0.774135   -2.734540   -0.939114
H       0.910500   -2.494298   -1.412169
H      -0.142587   -2.705341    2.724136
H      -0.351401   -3.980719    1.429513
H       2.097927   -3.631202    0.741652
H       2.257192   -2.362896    2.050194
