14

C       0.014075    1.427111    0.081140
C       1.491459    1.936204   -0.099203
C       2.207081    0.629734    0.024538
C       1.339143   -0.420284   -0.087804
N       0.013524   -0.015892   -0.298065
N       2.000147   -1.595863   -0.059530
N       3.283154   -1.319226    0.065580
N       3.415240    0.030300    0.094705
H      -0.277528    1.555430    1.132669
H      -0.689871    1.987060   -0.539061
H       1.636736    2.388486   -1.088826
H       1.747303    2.691876    0.648762
H      -0.684700   -0.560648    0.192013
H       4.338479    0.419188    0.194176
