17

C      -0.072316    1.520232    0.074743
C       0.049569    0.033913    0.078198
C       1.245787   -0.787957   -0.346446
C       0.628971   -0.986790    1.021181
O       1.291480   -0.823160    2.215537
C      -0.714685   -1.722049    0.872241
O      -1.147864   -0.739578   -0.120704
C      -0.731222   -3.096386    0.406142
C      -0.722435   -4.240714    0.037249
H       0.878124    1.978812    0.361161
H      -0.339802    1.884557   -0.923207
H      -0.844599    1.847244    0.777378
H       1.151550   -1.539936   -1.124813
H       2.190815   -0.253318   -0.314334
H       2.006989   -1.467695    2.259645
H      -1.318103   -1.610464    1.781343
H      -0.724484   -5.250500   -0.292170
