18

C      -0.120477    1.559394   -0.025857
C       0.013148    0.035315   -0.001463
C       0.921692   -0.546900   -1.137749
C       1.969098   -1.282401   -0.311853
C       1.293323   -1.934394    0.931033
O       2.487413   -1.696086    1.753386
C       2.295618   -0.465483    0.972865
C       0.756288   -0.502986    1.219928
H       0.861755    2.043541    0.023588
H      -0.610606    1.897352   -0.944906
H      -0.712327    1.921697    0.821505
H      -0.989621   -0.405563   -0.053437
H       0.377089   -1.217331   -1.810072
H       1.362681    0.244367   -1.753928
H       2.781894   -1.821639   -0.797510
H       0.790963   -2.898253    1.025744
H       3.009652    0.345626    1.120537
H       0.390743   -0.282673    2.223070
