25

C       0.907843   -0.323085   -1.078721
C       0.003997    0.098463    0.088412
C      -0.164731    1.624572    0.113559
C      -1.378712   -0.579997    0.039871
C      -1.403920   -2.119391    0.101593
C      -0.772346   -2.671747    1.388373
C      -2.856743   -2.624148   -0.049792
C      -2.930953   -4.116157   -0.274300
O      -3.577701   -4.891163    0.382207
H       1.867422    0.202592   -1.037243
H       1.122302   -1.396041   -1.071934
H       0.440584   -0.082301   -2.041589
H       0.499823   -0.192464    1.023949
H      -0.649990    1.980023   -0.803491
H      -0.780190    1.945421    0.960647
H       0.803979    2.128846    0.192070
H      -1.987548   -0.191993    0.868714
H      -1.885465   -0.259722   -0.881935
H      -0.835564   -2.508885   -0.754766
H       0.287352   -2.413406    1.463862
H      -1.279700   -2.269259    2.273103
H      -0.849171   -3.762804    1.435628
H      -3.464523   -2.368335    0.824338
H      -3.310032   -2.145822   -0.930527
H      -2.314879   -4.474432   -1.134741
