20

C      -0.027683    1.444526   -0.174736
O       0.009107    0.062397    0.096823
C      -1.257865   -0.580276    0.086752
C      -1.205534   -1.940351   -0.600989
N      -0.311480   -2.921452    0.053472
C      -1.778238   -2.942247    0.328196
C      -2.105640   -2.205830    1.586213
C      -1.779811   -0.913786    1.489538
C      -1.827008    0.125617    2.561392
H       1.007180    1.796970   -0.177201
H      -0.473879    1.658617   -1.158847
H      -0.586688    2.011775    0.584425
H      -1.983061    0.062497   -0.440494
H      -1.342941   -1.995963   -1.675024
H      -0.097609   -3.643507   -0.633937
H      -2.369028   -3.785337   -0.012600
H      -2.490547   -2.688913    2.477540
H      -2.199971   -0.285417    3.503313
H      -0.825804    0.535156    2.739897
H      -2.470197    0.969139    2.277803
