22

C       0.023358    1.521310    0.189758
C      -0.080443    0.015516   -0.066593
C       0.986700   -0.496021   -1.044171
C       0.886824   -1.990227   -1.272442
C      -0.055147   -2.576690   -2.276722
C       1.436623   -2.684941   -2.520318
C       2.020373   -1.882566   -3.641043
N       3.203190   -2.366666   -4.131302
O       1.491799   -0.887965   -4.110031
H       0.996895    1.784291    0.618870
H      -0.089324    2.087799   -0.741106
H      -0.749792    1.863490    0.885002
H       0.003427   -0.525791    0.885668
H      -1.074863   -0.223535   -0.464215
H       0.898131    0.023865   -2.001974
H       1.983360   -0.255259   -0.647922
H       1.026422   -2.582437   -0.369893
H      -0.597921   -3.484634   -2.039317
H      -0.567934   -1.882816   -2.934552
H       1.896916   -3.653907   -2.352360
H       3.717949   -3.088814   -3.658958
H       3.683001   -1.809917   -4.819737
