20

C      -0.014415    1.374882   -0.093256
O      -0.053422   -0.035139    0.054754
C       0.659079   -0.557827    1.146168
C       0.185343   -0.037211    2.501143
C       0.716950   -2.085486    1.113708
N       1.459932   -2.480649   -0.104760
C       2.207742   -2.085387    1.113014
C       2.258997   -0.553464    1.012192
O       2.792370   -0.037002   -0.170725
H       1.014046    1.752294   -0.091021
H      -0.470064    1.594923   -1.062071
H      -0.594074    1.891418    0.684725
H      -0.892269   -0.194446    2.616698
H       0.697530   -0.563869    3.312306
H       0.393117    1.030481    2.616120
H       0.027075   -2.771705    1.590723
H       1.454423   -3.497754   -0.153545
H       2.905187   -2.762819    1.589663
H       2.752461   -0.057252    1.850719
H       2.392175   -0.570790   -0.873221
