15

C      -0.120007    1.523897   -0.036901
C       1.444188    1.685083    0.049081
O       2.053023    2.191943    1.236385
C       2.464798    1.073425    2.097977
C       1.678300   -0.106920    1.566779
C       1.359251    0.221599    0.290942
N       0.019397   -0.028975    0.018044
N      -0.500442   -0.719454    1.124401
C       0.485545   -0.796128    2.000324
H      -0.632668    1.874509    0.857268
H      -0.606595    1.845585   -0.956784
H       1.917267    2.123174   -0.831074
H       3.553914    0.966679    2.033097
H       2.199657    1.326548    3.128271
H       0.321670   -1.330257    2.928861
