15

C      -0.056429    1.511286   -0.022684
C      -0.119409    0.019076    0.071385
O       0.311754   -0.678274   -1.163538
C      -0.771933   -1.581233   -1.015957
C      -0.797698   -2.119637    0.406212
O       0.378261   -1.973168    1.177687
C       0.773862   -0.661809    1.120659
O       1.696985   -0.221075    1.735767
C      -1.431575   -0.795325    0.096040
H       0.984877    1.829276   -0.121061
H      -0.627055    1.867301   -0.883380
H      -0.463331    1.961551    0.887996
H      -1.137532   -2.097961   -1.895144
H      -1.373573   -2.996686    0.667323
H      -2.439316   -0.463792    0.305017
