22

C      -0.021015    1.430448   -0.052347
C      -0.035875   -0.087682   -0.048361
C      -1.300848   -0.675441    0.544982
C       0.737401   -0.735375   -1.137444
N       1.318500   -0.610399    0.274158
C       1.244861   -2.113205    0.389360
C       0.741179   -2.242395   -1.050257
C      -0.190418   -3.237565   -1.683530
C       1.263666   -3.179857   -2.094735
H       0.932853    1.807232   -0.429354
H      -0.828642    1.826699   -0.677671
H      -0.156498    1.817249    0.963540
H      -2.175571   -0.219409    0.069272
H      -1.381789   -1.754189    0.410226
H      -1.357906   -0.453730    1.617205
H       1.146222   -0.168021   -1.970772
H       2.251913   -2.510769    0.540445
H       0.596499   -2.474136    1.194490
H      -0.516267   -4.081815   -1.083862
H      -0.936647   -2.872738   -2.382028
H       1.501252   -2.772401   -3.072635
H       1.919977   -3.984036   -1.776483
