13

C       0.089491    1.444308    0.009366
N      -0.016868   -0.010967    0.050157
N      -0.212969   -0.625031   -1.119824
N      -0.319511   -1.883134   -1.200466
C      -0.232059   -2.679814   -0.036772
O      -0.323742   -3.864497   -0.043149
O      -0.027365   -2.029984    1.180241
C       0.087864   -0.676162    1.270732
N       0.273246   -0.040325    2.342031
H       1.060079    1.756527    0.399774
H      -0.022157    1.738901   -1.032983
H      -0.693232    1.890854    0.625668
H       0.326011   -0.675107    3.136913
