20

C       0.017477    1.561578    0.193494
C      -0.048454    0.033694    0.015235
C       0.824349   -0.684717    1.059239
C      -1.467524   -0.459849    0.051492
N      -2.058864   -0.991052   -1.024355
N      -3.287637   -1.284545   -0.610030
C      -4.253443   -1.936380   -1.469043
N      -3.550700   -0.994590    0.658142
C      -2.407681   -0.466146    1.098853
H       1.051319    1.914463    0.118607
H      -0.575441    2.074198   -0.569401
H      -0.367472    1.860514    1.174804
H       0.335031   -0.211160   -0.981498
H       0.475435   -0.476469    2.076798
H       0.805252   -1.768671    0.913899
H       1.863771   -0.347990    0.989200
H      -3.999396   -2.992037   -1.604703
H      -5.229361   -1.852332   -0.992919
H      -4.262207   -1.443130   -2.442491
H      -2.318738   -0.120102    2.116358
