20

C      -0.552472    1.069487   -0.254101
C      -0.206799   -0.403760   -0.001314
C       0.535320   -1.024260   -1.225909
N       1.538119   -1.915625   -0.626278
C       1.715541   -1.551943    0.678910
C       0.764841   -0.704614    1.143874
C       0.699958   -0.341199    2.559703
C      -0.498145    0.460641    3.052587
O       1.577226   -0.669255    3.347423
H       0.358050    1.670777   -0.347933
H      -1.124945    1.175013   -1.182799
H      -1.156891    1.492572    0.551096
H      -1.147074   -0.952093    0.158572
H      -0.131044   -1.574207   -1.896023
H       1.024272   -0.230466   -1.809884
H       2.328347   -2.214997   -1.176296
H       2.520873   -1.976090    1.264228
H      -1.440888    0.090593    2.635745
H      -0.528102    0.410856    4.141966
H      -0.399318    1.511020    2.755869
