16

C       0.047631    1.429919   -0.015909
N       0.182339   -0.016270   -0.051901
C       0.111932   -0.735884    1.208558
C       0.092082   -0.662441   -1.229327
N       0.032030   -0.131486   -2.430838
C      -0.002008   -1.253342   -3.210573
O      -0.060971   -1.178543   -4.541619
N       0.023570   -2.410368   -2.601508
O       0.082904   -2.000620   -1.227248
H       0.790006    1.850142    0.670783
H       0.212952    1.829288   -1.015368
H      -0.951596    1.730678    0.327384
H      -0.898266   -0.700073    1.639000
H       0.392469   -1.777321    1.058753
H       0.806408   -0.280959    1.921989
H      -0.069848   -0.240420   -4.766174
