21

C       0.105344    1.495856    0.121679
C       0.051270    0.001866    0.033449
C      -0.030766   -0.741031   -1.077134
C      -0.091910   -2.224042   -0.783919
C       0.044779   -2.298135    0.740580
C       1.303406   -1.802343    1.408222
C       2.625001   -1.595256    0.710648
O       3.478467   -0.715943    1.435867
C       0.103044   -0.865957    1.252188
H       1.036362    1.840083    0.591157
H       0.033248    1.960725   -0.865110
H      -0.712778    1.884819    0.741155
H      -0.030604   -0.345402   -2.087589
H      -1.046284   -2.658281   -1.110902
H       0.691188   -2.786355   -1.309614
H      -0.529734   -3.051080    1.267616
H       1.431524   -2.166841    2.425176
H       3.166436   -2.546282    0.655352
H       2.475112   -1.242128   -0.318097
H       2.995678    0.108173    1.556719
H      -0.412139   -0.546664    2.153151
