18

C       0.056502    1.604295    0.117500
C       0.084936    0.106728    0.047857
C      -0.943018   -0.796816    0.663128
C       0.494874   -0.837513    1.147730
C       1.401013   -1.865538    0.503084
N       1.003630   -3.261829    0.660872
C       1.320136   -1.521060   -0.996730
O       1.773661   -2.168607   -1.895792
O       0.628695   -0.370794   -1.186251
H       1.061587    2.020524   -0.003393
H      -0.582410    2.018813   -0.668618
H      -0.338954    1.927525    1.084256
H      -1.675439   -0.345077    1.323040
H      -1.303039   -1.642801    0.087503
H       0.734270   -0.463377    2.136091
H       2.442276   -1.665100    0.810079
H       1.476216   -3.806832   -0.056231
H       1.310797   -3.616323    1.560569
