21

C       0.327984    1.508461   -0.166916
C      -0.054305    0.046927    0.024248
C      -1.495085   -0.263608    0.539136
C      -0.902298   -1.247532    1.586305
C       0.530395   -0.731846    1.259936
C       1.594313   -1.729356    0.754420
C       1.349877   -1.826644   -0.740038
O       0.001521   -2.181045   -1.078303
C       0.381927   -0.799496   -1.161768
H       1.397058    1.620242   -0.384395
H      -0.227964    1.959012   -0.998022
H       0.108742    2.091264    0.733440
H      -1.963598    0.614504    0.992859
H      -2.185975   -0.689569   -0.191457
H      -1.232744   -1.106418    2.618479
H      -1.043948   -2.292248    1.307116
H       0.924020   -0.077883    2.041896
H       2.610513   -1.354948    0.928461
H       1.519422   -2.706067    1.245715
H       2.111434   -2.230033   -1.404402
H       0.365459   -0.381081   -2.167069
