14

O      -0.227423    0.515728    1.214033
C      -0.092752    1.411248    0.436763
O      -1.156186    1.793003   -0.348308
C      -1.016813    2.829989   -1.255328
N      -0.085339    3.666911   -1.346128
C       1.012304    3.562468   -0.395187
C       1.185538    2.171879    0.175600
C       2.387881    1.757265    0.905688
O       2.180275    1.335824   -0.442330
H      -1.881482    2.848332   -1.911987
H       1.943148    3.859866   -0.887093
H       0.829773    4.285036    0.412841
H       3.184460    2.486224    1.047991
H       2.301697    0.978336    1.658445
