19

C      -0.053642    1.540080   -0.019366
C       0.018936    0.015598   -0.013382
C       0.924167   -0.588563   -1.085029
C       2.287990   -0.675414   -0.415938
O       2.171347   -0.187657    0.908085
C       0.813215   -0.593509    1.176942
C       0.825746   -2.098820    0.840894
C       1.434591   -1.918315   -0.548497
O       1.701954   -2.964183   -1.416883
H       0.944000    1.972224    0.094784
H      -0.481691    1.909980   -0.956789
H      -0.681117    1.907351    0.800114
H      -0.987415   -0.416482   -0.049028
H       0.813422   -0.410094   -2.146154
H       3.240591   -0.506274   -0.897584
H       0.534316   -0.290242    2.184452
H       1.469693   -2.671270    1.516489
H      -0.174035   -2.540529    0.822452
H       2.450749   -3.460647   -1.067474
