20

C       0.160086    1.503910    0.358621
C       0.040688    0.002713    0.045593
C      -1.390532   -0.545248    0.243949
C      -1.874689   -0.478314    1.700113
N      -3.192841   -1.064859    1.875994
C      -4.315758   -0.315386    2.049045
O      -4.344932    0.895304    2.111350
C       0.443679   -0.247921   -1.395614
O       1.264393   -1.049886   -1.758133
H       1.180173    1.859836    0.184986
H      -0.515880    2.092287   -0.271883
H      -0.090570    1.715428    1.400838
H       0.735604   -0.570678    0.669992
H      -2.095685    0.009245   -0.387877
H      -1.419012   -1.590020   -0.091193
H      -1.160176   -0.989718    2.356570
H      -1.961404    0.556550    2.035222
H      -3.296920   -2.064307    1.799239
H      -5.221143   -0.947955    2.137503
H      -0.107991    0.382618   -2.134477
