23

C      -0.190621    1.578279    0.104820
C       0.023868    0.061392   -0.014118
C      -1.313072   -0.686532    0.072177
C       0.780925   -0.341484   -1.299827
O       0.059814    0.006137   -2.483065
C       2.223101    0.187424   -1.365647
C       2.992921   -0.423872   -2.511041
C       4.437783   -0.667559   -2.442818
O       3.508868   -1.742069   -2.288745
H       0.750698    2.136388    0.099633
H      -0.817932    1.957912   -0.711033
H      -0.708702    1.818533    1.038114
H       0.653248   -0.257874    0.828253
H      -1.941036   -0.447411   -0.791272
H      -1.159944   -1.770708    0.081245
H      -1.859534   -0.415839    0.981276
H       0.829214   -1.436665   -1.327777
H       0.014768    0.967414   -2.528558
H       2.213298    1.280460   -1.480977
H       2.744131   -0.034629   -0.427194
H       2.538789   -0.291543   -3.492754
H       5.031299   -0.687450   -3.356057
H       4.986266   -0.391683   -1.542323
