11

N       0.035073    1.342544   -0.132866
C      -0.012405    0.006666   -0.025243
C      -1.126934   -0.768371    0.068510
F      -2.343095   -0.226353    0.059869
N      -1.085091   -2.111836    0.174776
N      -0.051150   -2.786650    0.199099
O       1.231759   -2.034408    0.102084
C       1.287088   -0.694663   -0.006575
O       2.335935   -0.099233   -0.084830
H       0.946804    1.767760   -0.195073
H      -0.799093    1.901148   -0.156200
