18

O      -0.090345    1.398346   -0.153930
C      -0.004960   -0.004891    0.062018
C      -1.414177   -0.572002    0.023265
C      -2.119713   -0.425935   -1.366446
C      -2.324027   -1.928042   -1.646104
C      -2.891600   -2.476936   -0.318099
C      -1.445653   -2.119113    0.083881
O      -1.023573   -2.490640   -1.267620
H       0.803671    1.744000   -0.229468
H       0.596203   -0.497258   -0.715874
H       0.459253   -0.225560    1.037717
H      -2.001860   -0.125789    0.831768
H      -3.057078    0.133962   -1.321927
H      -1.470982    0.044858   -2.107454
H      -2.675517   -2.245939   -2.627621
H      -3.726137   -1.959484    0.162886
H      -3.049861   -3.555105   -0.352937
H      -0.896411   -2.628338    0.877024
