17

C      -0.019059    1.559161    0.048038
C       0.144772    0.055192   -0.057154
C       0.730789   -0.712280   -1.203907
C       1.939410   -0.019571   -1.819200
O       1.697325    1.188879   -2.500998
C       2.602918   -0.017049   -0.406242
O       3.704593    0.270339   -0.028237
C       1.426398   -0.724238    0.205989
O       1.501226   -1.752448    1.115986
H       0.803978    2.095421   -0.423477
H      -0.942638    1.872887   -0.449837
H      -0.084803    1.864842    1.098027
H      -0.684931   -0.499627    0.382601
H       0.208669   -1.542543   -1.661208
H       2.510272   -0.725326   -2.444791
H       2.552675    1.589962   -2.692559
H       1.236670   -1.424380    1.981953
