14

O      -0.126013    0.064830   -0.169174
C      -0.029630    1.225052    0.045584
O      -1.010236    2.096269    0.490901
C      -0.096902    3.235206    0.517653
C       1.006510    2.330464   -0.024539
N       2.409406    2.213421    0.305921
C       2.039204    2.609455   -1.071684
C       2.325433    1.693016   -2.138088
C       2.559254    0.955310   -3.056549
H      -0.446707    4.036426   -0.137064
H       0.043320    3.599584    1.539093
H       2.722820    3.024699    0.835134
H       2.144738    3.662380   -1.329535
H       2.759133    0.284877   -3.855840
