19

C      -0.122993    1.552797    0.018368
C       0.057281    0.028882    0.008266
C       0.789725   -0.446931   -1.222919
C       1.587089   -1.524470   -1.253072
C       1.803103   -2.380392   -0.065240
O       2.542128   -3.343604   -0.095401
C       1.018039   -1.994886    1.185863
C       0.762387   -0.485162    1.284875
O       1.960578    0.229729    1.559031
H       0.843691    2.057639    0.085397
H      -0.634305    1.893451   -0.887421
H      -0.719614    1.863889    0.881273
H      -0.944642   -0.429520   -0.011410
H       0.648079    0.137754   -2.130649
H       2.106678   -1.829556   -2.156290
H       0.055538   -2.524314    1.138916
H       1.553279   -2.363723    2.063814
H       0.120491   -0.279709    2.148006
H       2.576274    0.075792    0.833041
