21

C       0.174427    1.400911   -0.264060
C      -0.026490   -0.071462    0.010084
N       1.012366   -1.065723   -0.268542
C       2.268640   -0.828796   -0.827532
N       2.198676   -0.319721   -2.113076
O       3.319242   -1.079042   -0.271170
C       0.659396   -0.827055    1.124801
C       1.637590   -0.132914    2.053861
C      -0.092905   -1.973342    1.776519
H       1.171252    1.748612    0.011739
H       0.035050    1.620422   -1.327507
H      -0.563207    1.984889    0.296688
H      -1.024600   -0.423993   -0.254934
H       1.357158   -0.500479   -2.637715
H       3.058614   -0.409176   -2.632303
H       2.166673    0.693155    1.579210
H       1.103016    0.251039    2.929621
H       2.395090   -0.842768    2.395502
H       0.607203   -2.730147    2.145957
H      -0.681843   -1.614582    2.627743
H      -0.766870   -2.454511    1.063319
