13

N       0.152719    1.372056    0.177334
C      -0.021810    0.018831    0.059462
C      -1.130882   -0.764903    0.027340
N      -0.626590   -2.095128    0.009084
C       0.733047   -2.102207    0.003318
O       1.528191   -2.997181   -0.029258
O       1.104500   -0.741658    0.044150
C      -2.484169   -0.416756    0.019457
C      -3.653528   -0.116312    0.004161
H       0.978286    1.724865   -0.287997
H      -0.677287    1.908836   -0.032183
H      -1.176832   -2.934335   -0.028564
H      -4.681365    0.149441    0.004319
