23

C       0.037400    1.423757    0.349349
C      -0.004077   -0.002622   -0.214110
C      -1.369362   -0.646133   -0.064292
C      -1.689449   -2.133212   -0.102606
C      -2.680944   -2.720328   -1.065755
C      -0.582730   -2.931450    0.607332
C      -0.838004   -2.117175    1.918078
C      -1.911151   -1.316140    1.173047
O      -3.129366   -0.961990    1.736067
H       1.023370    1.879268    0.213283
H      -0.697544    2.067721   -0.146730
H      -0.187833    1.430282    1.421705
H       0.269744    0.017340   -1.277234
H       0.761897   -0.607763    0.282000
H      -2.162248   -0.081499   -0.557048
H      -2.232704   -2.895419   -2.051495
H      -3.065450   -3.680341   -0.702084
H      -3.536014   -2.050610   -1.202471
H      -0.842484   -3.987261    0.720140
H       0.421058   -2.869120    0.175902
H      -1.280109   -2.736076    2.701946
H       0.004084   -1.560246    2.343777
H      -3.076110   -0.045901    2.028120
