19

C      -0.778606    0.451982    0.432462
O       0.197856    0.839072   -0.516790
C       0.554947   -0.126252   -1.395511
C       0.189599   -1.449080   -1.527970
C       0.924331   -1.955576   -2.647644
N       0.775704   -3.252682   -3.181476
C       1.698163   -0.933413   -3.138096
N       1.452259    0.204064   -2.366941
C       2.130147    1.472846   -2.498632
H      -1.708355    0.141242   -0.060842
H      -0.415629   -0.373974    1.057552
H      -0.969192    1.326019    1.057069
H      -0.530047   -1.987000   -0.933040
H       0.703754   -3.953426   -2.453336
H       1.547895   -3.503009   -3.786922
H       2.382641   -0.893085   -3.969453
H       2.178046    1.762187   -3.552839
H       1.573000    2.233171   -1.950754
H       3.152441    1.434500   -2.101251
