19

C      -0.344499    1.458346    0.035928
C       0.072168   -0.020809   -0.007699
C       0.757552   -0.359161   -1.369070
C       2.288857   -0.282153   -1.234748
O       2.646074    0.706166   -0.221076
C       2.463086   -0.293881    0.826935
C       0.975961   -0.373867    1.215440
C       2.745042   -1.357044   -0.241176
O       3.173045   -2.469316   -0.283675
H       0.531700    2.107620   -0.034423
H      -1.018779    1.698065   -0.793265
H      -0.869842    1.688038    0.969167
H      -0.839738   -0.622148    0.065941
H       0.489374   -1.364998   -1.713563
H       0.412144    0.339554   -2.137406
H       2.825410   -0.143143   -2.175914
H       3.150095   -0.164997    1.666229
H       0.765052    0.315790    2.038689
H       0.768437   -1.383789    1.588661
