15

O       0.379127    1.351105    0.089672
C       0.074959   -0.007698    0.002468
C      -1.446463   -0.365897   -0.149628
C      -1.292278   -0.542942   -1.704025
O      -1.852034   -1.637333   -2.360334
C      -1.628783    0.728724   -2.460069
O      -1.452566    1.850630   -2.043338
C       0.233665   -0.679629   -1.387953
O       1.022017   -1.413857   -1.905535
H      -0.191339    1.824870   -0.539001
H       0.620701   -0.521281    0.797760
H      -1.710928   -1.315794    0.317929
H      -2.129824    0.425432    0.162360
H      -1.132420   -2.250983   -2.563965
H      -2.056640    0.533657   -3.463151
