18

C      -0.663934    0.803752    0.049259
N       0.712726    0.319437   -0.012245
C       1.062593   -0.419823   -1.213162
C       0.856574   -1.951963   -1.050531
C      -0.546871   -2.351896   -1.014234
N      -1.647135   -2.710349   -1.031851
C       1.670904   -2.710456   -2.136971
N       1.044358   -3.740047   -2.752579
O       2.815102   -2.377822   -2.369107
H      -0.961150    1.409436   -0.824687
H      -1.358868   -0.037042    0.121372
H      -0.789536    1.413264    0.948499
H       1.349189    1.099345    0.091417
H       0.514895   -0.079763   -2.108154
H       2.129242   -0.305409   -1.414937
H       1.308944   -2.224423   -0.089657
H       0.082095   -3.972389   -2.572087
H       1.554323   -4.251744   -3.453948
