17

C      -0.016513    1.364081   -0.021338
N       0.005727   -0.081630    0.041864
N       0.041927   -0.799696   -1.091157
C       0.054742   -2.081154   -0.711853
C       0.094647   -3.174973   -1.732090
C       0.026219   -2.187211    0.691717
C      -0.005218   -0.878818    1.155590
C      -0.041928   -0.367627    2.469624
C      -0.073282    0.068207    3.592516
H       0.878242    1.731736   -0.530632
H      -0.899564    1.702626   -0.569731
H      -0.045285    1.756284    0.995349
H       0.984533   -3.802304   -1.612000
H      -0.778599   -3.831153   -1.650034
H       0.109265   -2.745200   -2.735775
H       0.027731   -3.078149    1.298061
H      -0.100854    0.444810    4.585006
