18

O      -0.086663    1.476957    0.444894
C      -0.005736    0.101396    0.205000
C      -0.690601   -0.861009    1.143847
C      -1.267333   -0.584832   -0.233671
C      -2.558897    0.191447   -0.379163
C      -3.803465   -0.687718   -0.151858
C      -5.083199    0.073806   -0.404693
O      -5.986603    0.195083    0.382062
H       0.458185    1.677506    1.212754
H       0.925779   -0.222833   -0.259166
H      -0.229271   -1.821530    1.345900
H      -1.212951   -0.420460    1.987598
H      -1.135033   -1.375780   -0.968246
H      -2.559080    1.028561    0.324835
H      -2.604824    0.635584   -1.382393
H      -3.780046   -1.532948   -0.856093
H      -3.828856   -1.094646    0.862803
H      -5.140199    0.545796   -1.415083
