20

O       0.003938    1.415775   -0.021260
C       0.029847   -0.008937   -0.029730
C       0.692180   -0.585879    1.239917
C      -0.481854   -0.681390    2.212904
N      -1.544191   -1.192801    1.347729
C      -2.864091   -1.223848    1.932457
C      -2.983730   -2.323393    2.976422
O      -3.694192   -2.273341    3.945449
C      -1.437845   -0.480647    0.066862
H       0.913575    1.727682   -0.068894
H       0.514752   -0.372996   -0.944764
H       1.088950   -1.585747    1.036954
H       1.509807    0.046247    1.596878
H      -0.302006   -1.360704    3.052890
H      -0.720008    0.315450    2.627769
H      -3.192283   -0.267556    2.378633
H      -3.590484   -1.476860    1.145659
H      -2.355578   -3.215014    2.747463
H      -2.073384    0.417218    0.024442
H      -1.727950   -1.140581   -0.758181
