17

O       0.163273    1.365557   -0.199778
C       0.079478   -0.020730    0.014758
C       0.219985   -0.500818    1.482253
N      -1.260817   -0.622568    1.550820
C      -1.365328   -0.603505    0.091096
C      -2.560335    0.029464   -0.674431
N      -2.652926   -1.232939   -1.420677
C      -1.669980   -1.890985   -0.725450
O      -1.244922   -3.016953   -0.748160
H      -0.352973    1.804513    0.486284
H       0.739503   -0.487615   -0.716781
H       0.760666   -1.450977    1.561523
H       0.648657    0.221748    2.185646
H      -1.613899   -1.461642    1.999713
H      -3.426876    0.241204   -0.040166
H      -2.307538    0.903505   -1.281625
H      -3.265836   -1.535617   -2.162346
