19

C       0.042693    1.398052   -0.056306
O      -0.154423    0.009680    0.104664
C       0.615279   -0.582991    1.140553
C       0.041783   -1.902053    1.415428
C      -0.385581   -2.999355    1.651984
C       2.102493   -0.719777    0.779461
C       3.047530    0.487614    0.987607
O       3.926185   -0.285163    1.824638
C       3.018707   -1.407335    1.815065
H       1.032719    1.641206   -0.467896
H      -0.717505    1.742934   -0.761054
H      -0.083030    1.940400    0.893512
H       0.533615    0.032136    2.055392
H      -0.779917   -3.963320    1.860489
H       2.172725   -1.160357   -0.217028
H       3.556148    0.871712    0.095582
H       2.603403    1.331521    1.534472
H       2.554514   -1.570163    2.797001
H       3.506864   -2.334283    1.496605
