16

C      -1.272229    1.168510    0.990574
C      -0.490159    0.356394   -0.055715
O       0.889475    0.434816    0.185629
C      -0.927975   -1.105269   -0.063632
O      -0.125947   -1.977260    0.185548
C      -2.394557   -1.464752   -0.339391
C      -3.082817   -0.621312   -1.305736
C      -3.651466    0.067697   -2.109257
H      -0.876578    2.186669    1.005808
H      -2.337739    1.214826    0.749813
H      -1.141069    0.738095    1.988198
H      -0.722113    0.763443   -1.052717
H       1.182095   -0.479369    0.326899
H      -2.409312   -2.515156   -0.646439
H      -2.913000   -1.418788    0.629490
H      -4.153170    0.675444   -2.821408
