20

N      -0.089932    1.272120    0.008223
C      -0.065723    0.009797    0.002072
O      -1.215911   -0.687815    0.009856
C      -1.091963   -2.114124    0.002107
C      -2.473890   -2.698430    0.011281
C      -3.594089   -2.498962   -1.054337
C      -4.196691   -3.446336    0.022646
C      -2.840982   -4.212149    0.008525
C      -3.576306   -2.507191    1.096754
H       0.860918    1.635628    0.000713
H       0.833461   -0.623189   -0.009605
H      -0.544508   -2.438524   -0.894333
H      -0.529100   -2.446888    0.885848
H      -4.020586   -1.496090   -1.126168
H      -3.409991   -2.932041   -2.041973
H      -5.195080   -3.883377    0.029215
H      -2.601540   -4.772651   -0.900001
H      -2.586591   -4.779530    0.908681
H      -3.375971   -2.947804    2.077873
H      -4.001464   -1.504915    1.183266
