9

O      -0.000317    0.006763   -0.171398
C      -0.014171    1.186729   -0.009803
C      -1.082831    2.276534    0.155741
O      -0.038561    3.264604    0.275140
C       1.028573    2.305157    0.127743
H      -1.729239    2.436475   -0.716713
H      -1.702199    2.193467    1.058008
H       1.673668    2.239233    1.013242
H       1.647051    2.482245   -0.761484
