19

O      -0.035785    1.412765    0.007777
C      -0.013081    0.018830   -0.027956
C       0.459289   -0.743143   -1.287901
C      -0.545429   -1.848227   -0.880148
C      -0.136753   -2.589171    0.455020
C       1.177254   -2.036543    1.052904
C       0.414837   -0.718729    1.311150
C      -0.941075   -1.513842    1.273746
C      -1.349282   -0.793577   -0.036248
H       0.862432    1.725644    0.166384
H       0.101144   -0.218137   -2.179092
H       1.517811   -0.992644   -1.413781
H      -0.997447   -2.467010   -1.653892
H      -0.341864   -3.659429    0.489053
H       1.401581   -2.537395    2.000389
H       2.084211   -2.023195    0.439713
H       0.706383   -0.047666    2.120888
H      -1.561157   -1.724041    2.143501
H      -2.315964   -0.374988   -0.309208
