14

C      -0.058367    1.597102   -0.012568
C       0.049219    0.102838   -0.029690
C       0.667566   -0.916862   -0.949212
O       1.128108   -1.726473    0.153520
C       0.651066   -0.774651    1.056077
O       0.804334   -0.740000    2.228268
C      -0.828626   -0.817555   -0.917905
C      -1.672940   -1.863903   -0.403381
N      -2.368361   -2.694884   -0.001356
H       0.885075    2.049807    0.305938
H      -0.308464    1.985734   -1.003725
H      -0.838974    1.917106    0.684104
H       1.305212   -0.836104   -1.818193
H      -1.261369   -0.272203   -1.753746
