22

C       0.598523    1.470784    0.451784
C       0.016430    0.124476    0.000624
C       0.617002   -0.371576   -1.296147
C       0.306538    0.376006   -2.588213
O       0.556676   -0.523061   -3.664613
C       0.473933   -1.864735   -3.190198
C       0.738702   -1.807871   -1.699571
N       1.896648   -1.071315   -1.210961
C       3.039144   -0.759092   -2.064719
H       1.683771    1.397949    0.574663
H       0.394283    2.264828   -0.274699
H       0.171028    1.782591    1.409437
H       0.202307   -0.628943    0.772477
H      -1.072475    0.207790   -0.112918
H      -0.746561    0.701230   -2.575819
H       0.930912    1.261452   -2.754092
H      -0.524350   -2.296088   -3.369886
H       1.204126   -2.456272   -3.754860
H       0.390539   -2.632305   -1.081325
H       2.789501   -0.479859   -3.095490
H       3.599381    0.061409   -1.605064
H       3.698938   -1.632513   -2.089457
