20

C      -0.319035    1.415589   -0.045648
C       0.799432    2.478700   -0.003633
C       1.832018    2.220688   -1.065505
C       2.817089    1.325773   -0.978419
C       3.210925    0.469240    0.176641
N       2.935137    0.906279    1.562699
C       2.317545   -0.331936    1.082226
C       0.789859   -0.436113    1.025097
O       0.150518    0.084389   -0.118669
H      -0.978524    1.545011    0.827885
H      -0.929013    1.543728   -0.946438
H       0.333486    3.461625   -0.139338
H       1.269472    2.463811    0.980955
H       1.713375    2.749387   -2.008958
H       3.457051    1.187558   -1.847348
H       4.181867    0.000998    0.020302
H       3.731462    0.713821    2.163103
H       2.766487   -1.258429    1.441725
H       0.542903   -1.504537    1.036356
H       0.373790    0.006827    1.943430
