18

O      -0.004827    1.374013    0.004002
C       0.034963   -0.041002    0.069507
C      -1.355081   -0.602149    0.163826
C      -2.436841   -0.337025    1.221121
C      -3.149486   -1.066807    0.081139
N      -2.362897   -0.282060   -0.990954
C      -1.988248   -1.580096   -1.698494
C      -1.921398   -1.996088   -0.230357
O      -1.532461   -3.180288    0.366129
H      -0.682997    1.594390   -0.646726
H       0.559686   -0.473848   -0.798095
H       0.610856   -0.305539    0.962812
H      -2.335040   -0.878128    2.163712
H      -2.711604    0.708591    1.375306
H      -4.209411   -1.278523   -0.071539
H      -2.799706   -1.981665   -2.314510
H      -1.058934   -1.523988   -2.272734
H      -2.136780   -3.879951    0.093624
