18

C      -0.037390    1.415479   -0.085071
N      -0.106161   -0.008174    0.150359
C       0.612432   -0.662504    1.111173
C       1.328487    0.012550    2.125580
N       1.992217   -0.652513    3.059387
C       1.961598   -1.987427    3.003871
C       1.266059   -2.666847    2.002245
C       1.238197   -4.169507    1.933101
N       0.595681   -2.000836    1.057480
H       0.981920    1.763478   -0.307640
H      -0.675010    1.661180   -0.936239
H      -0.406315    1.980775    0.779138
H      -0.448642   -0.605730   -0.584540
H       1.356965    1.096740    2.172259
H       2.507304   -2.528190    3.771465
H       0.208800   -4.536581    1.998267
H       1.641610   -4.516253    0.976245
H       1.820770   -4.618099    2.741282
