19

C      -0.116095    1.554006    0.010654
C       0.061006    0.037499    0.010412
C       1.005803   -0.553004   -1.094158
C       1.948161   -1.334256   -0.157240
O       1.015708   -1.944826    0.784226
C       0.803534   -0.570814    1.223751
C       2.311735   -0.285999    0.939164
C       3.233184   -0.739700    1.957964
C       4.017716   -1.085540    2.800626
H       0.842312    2.081901    0.057858
H      -0.627241    1.885715   -0.898797
H      -0.718316    1.881410    0.865313
H      -0.921756   -0.439921   -0.045171
H       0.487349   -1.220287   -1.785271
H       1.524059    0.216972   -1.673870
H       2.683466   -2.022268   -0.572058
H       0.370972   -0.478491    2.219592
H       2.573579    0.717563    0.590745
H       4.704008   -1.403231    3.545712
