21

C       0.040974    0.953741   -0.574518
O       0.637697   -0.309416   -0.314844
C       0.976998   -0.556104    1.018756
C       2.187787    0.194131    1.537583
O       1.937762    1.579458    1.767604
C      -0.171517   -0.861458    1.981677
C       0.723809   -1.972317    1.461702
C       0.180289   -2.991254    0.487133
O       1.681934   -2.488478    2.353044
H       0.729425    1.779669   -0.373770
H      -0.238365    0.950487   -1.631010
H      -0.864763    1.100287    0.032104
H       2.565490   -0.300587    2.438889
H       2.972478    0.160412    0.775751
H       1.238375    1.638512    2.427138
H      -0.053531   -0.577841    3.023194
H      -1.182436   -0.795550    1.594437
H      -0.480056   -2.524212   -0.243785
H       1.003750   -3.473361   -0.048493
H      -0.381058   -3.767709    1.021232
H       1.232160   -3.112752    2.933221
