19

C      -0.033674    1.374302   -0.093664
O      -0.009576   -0.030875    0.073189
C      -1.269177   -0.620813    0.011087
O      -1.879000   -0.483028   -1.272935
C      -2.083732   -1.847183   -1.769497
C      -2.494735   -2.566566   -0.474581
C      -1.164354   -2.161261    0.212826
C      -0.160466   -2.637508   -0.825990
C      -0.717255   -2.458450   -2.028162
H       0.992300    1.728394    0.028771
H      -0.400244    1.652119   -1.088597
H      -0.670376    1.857222    0.664005
H      -1.936389   -0.148930    0.752104
H      -2.789607   -1.793955   -2.596176
H      -3.389334   -2.133768   -0.017318
H      -2.601410   -3.647063   -0.580155
H      -0.999250   -2.461732    1.246056
H       0.851220   -2.947526   -0.602316
H      -0.262036   -2.587259   -3.001086
