20

O      -0.022869    1.418758    0.007956
C       0.011109    0.025716   -0.061600
C       0.379143   -0.738963   -1.330505
N      -0.559795   -1.829691   -0.877221
C       0.207392   -2.796508   -0.072338
C       1.113174   -2.068842    0.960563
C       0.423912   -0.737169    1.275973
C      -1.088313   -1.005059    1.529363
C      -1.282552   -0.818448    0.020065
H       0.853943    1.735085    0.252161
H      -0.008430   -0.249150   -2.230068
H       1.412704   -1.055736   -1.508767
H      -0.501632   -3.461190    0.429589
H       0.796190   -3.419907   -0.752816
H       1.234507   -2.668293    1.870320
H       2.118437   -1.900270    0.558807
H       0.963516   -0.131627    2.009103
H      -1.371074   -1.948916    2.004699
H      -1.569353   -0.178911    2.059196
H      -2.245627   -0.523160   -0.399996
