18

C      -0.274379    1.533059    0.050946
C       0.053515    0.039062    0.001092
C       0.733952   -0.441889   -1.266173
C       1.823651   -1.152070   -0.985815
C       2.050102   -1.187967    0.496186
C       2.298703    0.166273    1.096598
N       0.946456   -0.388377    1.112922
C       2.502343   -2.396474    1.126412
C       2.913277   -3.411580    1.622548
H       0.616661    2.150014   -0.096908
H      -0.993409    1.787408   -0.733783
H      -0.717472    1.790953    1.016766
H      -0.889849   -0.509377    0.137438
H       0.362039   -0.213192   -2.258471
H       2.486474   -1.642481   -1.686786
H       2.756446    0.238051    2.079138
H       2.554973    0.960056    0.399714
H       3.262665   -4.307953    2.071707
