21

C      -0.368687    1.402365    0.340545
C      -0.003883   -0.020329   -0.049419
C       1.204014   -0.168053   -0.975188
C       1.631622   -1.623841   -0.689443
C       2.991058   -1.951939   -1.084538
C       4.112790   -2.218769   -1.425855
C       1.308424   -1.771049    0.838107
C       2.496053   -1.622057    1.779702
O       0.356266   -0.743507    1.127973
H       0.488731    1.904459    0.798961
H      -0.683028    1.973426   -0.538795
H      -1.191235    1.401335    1.061102
H      -0.879294   -0.502065   -0.519991
H       0.969678    0.001609   -2.028421
H       1.997811    0.526283   -0.681042
H       0.948315   -2.286382   -1.235610
H       5.103743   -2.455433   -1.724812
H       0.833957   -2.747077    1.009470
H       3.037402   -0.691000    1.587364
H       2.137243   -1.603410    2.812478
H       3.192645   -2.456423    1.663371
