16

O       0.509306    0.978544   -0.644826
C       0.095233   -0.175986    0.024742
C      -0.017991   -0.191095    1.573323
C      -1.305002   -1.050513    1.438306
C      -1.395599   -0.669119   -0.066971
C      -2.395678    0.422401   -0.359656
F      -2.132285    1.553673    0.347614
F      -2.394219    0.767501   -1.652480
F      -3.645763    0.055542   -0.040584
H      -0.030463    1.714730   -0.336149
H       0.752136   -0.975970   -0.327176
H       0.822447   -0.608487    2.131071
H      -0.238861    0.806698    1.960814
H      -1.120636   -2.118566    1.566184
H      -2.157795   -0.769075    2.057569
H      -1.596507   -1.477002   -0.773603
