22

C      -0.138541    1.533430    0.001058
C       0.062762    0.019682    0.012605
C       1.049755   -0.573131   -1.026299
C       2.417996   -0.047885   -0.531531
C       2.258437   -0.057229    1.022964
C       0.818882   -0.586693    1.223181
C       0.805991   -2.089547    0.863090
C       0.965764   -2.080147   -0.694306
H       0.799146    2.087907    0.100384
H      -0.611932    1.855453   -0.933058
H      -0.791806    1.844950    0.823596
H      -0.920520   -0.457273   -0.091194
H       0.838842   -0.339357   -2.072796
H       3.240348   -0.682802   -0.874606
H       2.618367    0.960183   -0.905791
H       2.994764   -0.697126    1.518377
H       2.377291    0.946088    1.442072
H       0.399501   -0.365182    2.207731
H       1.606816   -2.639544    1.366623
H      -0.139770   -2.553805    1.159285
H       0.100342   -2.539570   -1.181864
H       1.852742   -2.625178   -1.031304
