18

O       0.051421    0.042063    0.189132
C       0.026113    1.238766    0.139337
C      -1.082139    2.290405   -0.037327
C      -1.344652    2.916962    1.346543
C       0.043258    3.184297    1.989901
N       1.077878    3.436986    0.967252
C       0.493544    4.359283   -0.074348
C      -0.007764    3.140248   -0.839956
C       1.086424    2.309029   -0.069336
H      -1.990444    1.989473   -0.560586
H      -1.923619    3.839340    1.231895
H      -1.940057    2.240675    1.967527
H       0.010157    4.046512    2.663766
H       0.365585    2.319970    2.580049
H      -0.223938    5.094444    0.303689
H       1.296505    4.887560   -0.597472
H      -0.117513    3.125612   -1.924412
H       2.088155    2.060477   -0.421782
