18

C       0.409168    1.351931    0.225406
C       0.129589   -0.144620    0.053164
C       0.529259   -0.633767   -1.325372
O       1.963774   -0.504466   -1.574499
C       2.103517   -1.898009   -1.876233
C       3.043803   -2.605417   -1.005775
N       3.768324   -3.206093   -0.335192
C       0.588834   -2.159562   -1.579833
O       0.278275   -2.906634   -0.441769
H       1.469859    1.566019    0.067143
H      -0.166118    1.951009   -0.489282
H       0.141889    1.684039    1.232417
H       0.666984   -0.726347    0.806950
H      -0.937744   -0.355903    0.192981
H      -0.026331   -0.093336   -2.103011
H       2.397487   -2.061321   -2.921112
H       0.036268   -2.501964   -2.462777
H       0.503661   -3.830715   -0.594410
