18

C      -0.167600    1.560958    0.014507
C       0.034633    0.048097   -0.007486
C       0.887258   -0.507327   -1.195695
C       1.983797   -1.289340   -0.426253
O       1.259060   -1.791328    0.717008
C       0.850866   -0.526440    1.173139
O       2.090524    0.219392    1.285158
C       2.864364   -0.256873    0.253243
N       4.024327    0.113158   -0.065000
H       0.789916    2.088427    0.015899
H      -0.736159    1.886345   -0.861862
H      -0.723979    1.872957    0.904989
H      -0.939541   -0.450701    0.008204
H       0.311523   -1.184893   -1.828681
H       1.311076    0.280780   -1.822159
H       2.506408   -2.083841   -0.949925
H       0.378615   -0.578977    2.152416
H       4.356811    0.851771    0.557636
