18

C      -0.031754    1.573372    0.041300
C       1.514694    1.425550    0.004664
C       1.783032    0.786318    1.380735
C       0.839047   -0.450265    1.230748
C       1.675638   -1.562114    0.589559
O       2.102595   -0.979598   -0.655482
C       1.262259    0.137748   -0.868316
C      -0.006765    0.029395    0.010031
H      -0.470948    2.074075    0.908117
H      -0.446709    1.993116   -0.878764
H       2.166206    2.237239   -0.319011
H       2.825545    0.491176    1.527031
H       1.494726    1.450714    2.200395
H       0.293169   -0.747773    2.126510
H       2.559138   -1.833009    1.177876
H       1.090723   -2.474153    0.396269
H       1.134560    0.316991   -1.936117
H      -0.867229   -0.578371   -0.270262
