17

C      -0.004558    1.491472    0.096065
C       0.013249    0.004634    0.003078
C      -0.000479   -0.734209   -1.131230
C      -0.034509   -0.254222   -2.461384
C      -0.063375    0.132981   -3.601406
C       0.025724   -2.192230   -0.801133
O       0.021513   -3.112060   -1.580188
C       0.059379   -2.303867    0.729296
C       0.050381   -0.855690    1.244604
H       0.880621    1.854303    0.633850
H      -0.031719    1.956614   -0.891065
H      -0.875382    1.830962    0.671221
H      -0.088847    0.465279   -4.609629
H      -0.803534   -2.885943    1.064910
H       0.951428   -2.861697    1.027908
H       0.934561   -0.614866    1.848474
H      -0.814583   -0.638554    1.884239
