19

O       0.069569    1.354397   -0.096013
C       0.079450   -0.049958   -0.048073
C       1.158934   -0.689199   -0.868505
C       1.242956   -0.706391    0.647291
C      -1.309980   -0.668616   -0.000731
C      -2.422496    0.089533    0.716145
C      -2.416595    0.027062   -0.782746
C      -1.359527   -2.104555    0.067296
C      -1.398082   -3.306377    0.123055
H       0.011806    1.681032    0.808153
H       0.933901   -1.620595   -1.374469
H       1.818412   -0.013628   -1.400104
H       1.967621   -0.047420    1.113495
H       1.075445   -1.647867    1.157001
H      -3.148537   -0.501085    1.261326
H      -2.162853    1.034304    1.179444
H      -2.123898    0.923104   -1.316239
H      -3.145291   -0.601522   -1.279607
H      -1.437205   -4.366266    0.170671
