13

N       0.072593    1.315095   -0.052972
C      -0.005862   -0.035015    0.021504
N      -1.181809   -0.596253    0.057713
O      -1.220778   -1.988533    0.191789
C      -0.091890   -2.699488    0.266225
C       1.135564   -2.150973    0.210570
F       2.230802   -2.914540    0.279834
C       1.300683   -0.735619    0.066957
N       2.381204   -0.047586   -0.030800
H       0.986035    1.682397   -0.273769
H      -0.753043    1.839840   -0.284946
H      -0.278067   -3.761365    0.371726
H       3.199245   -0.656826    0.006991
