17

C      -0.332808   -1.186880    0.223745
C      -0.232310    0.009963    0.194986
C      -0.091404    1.459256    0.141041
C       1.306719    1.909078   -0.288829
C       1.609406    3.419193   -0.213309
C       2.725278    3.004174    0.784188
O       2.315716    1.614056    0.704607
C       4.097842    3.229212    0.359684
C       5.229497    3.428633    0.007002
H      -0.421865   -2.244242    0.258720
H      -0.817882    1.878167   -0.569203
H      -0.317255    1.896962    1.121529
H       1.562592    1.444710   -1.248954
H       1.957100    3.886200   -1.133790
H       0.817170    4.024129    0.232046
H       2.588210    3.386311    1.803245
H       6.232195    3.598722   -0.299235
