23

C      -0.181709    1.302121    0.076105
O       0.212618   -0.039567   -0.081229
C       0.774041   -0.610616    1.084683
C      -0.273630   -1.026307    2.172467
C      -0.016272   -2.544515    2.175341
C       0.073237   -2.862574    0.657060
C       1.368387   -1.991865    0.745341
C       2.457752   -2.027996   -0.300417
C       1.537473   -2.595427    2.174932
H       0.665616    1.942829    0.368616
H      -0.565651    1.644907   -0.888114
H      -0.973883    1.419021    0.831274
H       1.542700    0.069150    1.486192
H      -0.088395   -0.563702    3.146591
H      -1.288571   -0.770028    1.854037
H      -0.611873   -3.152241    2.857014
H       0.302394   -3.912947    0.460036
H      -0.729376   -2.514904    0.002448
H       2.105598   -1.581607   -1.235260
H       3.338003   -1.461972    0.027983
H       2.778993   -3.053931   -0.507903
H       2.076918   -2.008986    2.926971
H       1.932204   -3.614099    2.141735
