14

C      -0.057254    1.561670   -0.118856
C       0.026505    0.054575    0.002344
C       1.311477   -0.680216   -0.171180
C       0.655882   -0.652406    1.207809
C       1.313537    0.106695    2.292101
O       1.267543   -0.194536    3.460413
H       0.873968    2.052509    0.175524
H      -0.260963    1.843701   -1.157382
H      -0.861937    1.968819    0.502058
H      -0.858258   -0.462674   -0.359254
H       1.327907   -1.631109   -0.691052
H       2.215380   -0.089371   -0.289792
H       0.166174   -1.557082    1.551304
H       1.890305    0.999536    1.957308
