15

C       0.055884    1.470764   -0.387251
N       0.042457    0.034225   -0.115561
C      -1.041459   -0.460948    0.767774
C      -0.155288   -1.635281    1.272730
O      -0.400901   -1.397283    2.687295
C      -0.338540   -0.056873    2.140399
C      -0.513153    1.066370    3.018194
N      -0.648540    1.997879    3.690677
C       0.795022   -0.419159    1.079616
H       1.021095    1.740787   -0.825707
H      -0.721800    1.701150   -1.121364
H      -0.109331    2.098468    0.502518
H      -2.102849   -0.438888    0.521186
H      -0.070115   -2.654627    0.907737
H       1.876262   -0.348350    1.196861
