19

C       0.008951    1.603849   -0.165737
O       1.474023    1.455891    0.051158
C       1.132195    0.258898    0.851796
C       1.302531   -1.291855    0.904141
C      -0.314805   -1.229463    0.954805
C      -0.816049   -0.924329    2.360428
O      -0.419278    0.372523    2.770660
C       0.884580    0.712302    2.319284
C      -0.107165    0.062096    0.064368
H      -0.436505    2.247628    0.597247
H      -0.205743    1.977089   -1.169303
H       1.647415   -1.754014   -0.021937
H       1.816531   -1.728393    1.766728
H      -0.845135   -2.074930    0.511851
H      -1.910601   -0.932138    2.392733
H      -0.452704   -1.691791    3.064954
H       1.652134    0.267869    2.974450
H       0.965999    1.798063    2.390668
H       0.208860   -0.342410   -0.902340
