16

C       0.245182    1.523776    0.013191
C      -0.034914    0.007515    0.019638
C       0.579197   -0.666384    1.263132
O      -1.443445   -0.237541   -0.033415
C       0.534666   -0.595581   -1.189166
C       1.061081   -1.072656   -2.165495
C       1.637193   -1.659492   -3.347110
O       2.815741   -1.636299   -3.620026
H       1.318699    1.728329   -0.004766
H      -0.219618    1.987409   -0.859377
H      -0.176164    1.975566    0.918347
H       0.157951   -0.213649    2.167854
H       0.347725   -1.733523    1.264347
H       1.664284   -0.537706    1.288192
H      -1.829716    0.154860    0.757826
H       0.897885   -2.151023   -4.011642
