21

C       0.055290    1.577773   -0.025220
C       0.022888    0.047103   -0.018191
C      -1.400000   -0.521292    0.022632
C      -1.428995   -2.050876    0.023349
C      -2.868791   -2.640713    0.072401
C      -2.844282   -4.097272   -0.097904
C      -2.793625   -5.287072   -0.253418
C      -3.572651   -2.264970    1.304161
C      -4.135308   -1.943937    2.315741
H       1.082250    1.955152   -0.051397
H      -0.470149    1.981184   -0.898054
H      -0.428033    1.987486    0.868586
H       0.542822   -0.335410   -0.906526
H       0.585852   -0.327838    0.846639
H      -1.919420   -0.147604    0.913352
H      -1.965856   -0.146630   -0.842299
H      -0.947184   -2.439782   -0.880516
H      -0.867684   -2.444037    0.877869
H      -3.425643   -2.212843   -0.774949
H      -2.761490   -6.340140   -0.386029
H      -4.640851   -1.668510    3.208108
