19

O       0.125244    1.386306   -0.069640
C       0.026650   -0.021025    0.121017
C      -1.388926   -0.501952    0.086527
C      -2.033732   -1.887275   -0.093157
C      -2.961324   -1.641584    1.097512
C      -2.554454   -0.132257    1.054171
C      -3.509542    0.640658    0.149253
O      -3.453766   -0.060058   -1.104805
C      -2.239795   -0.778599   -1.108676
H      -0.284101    1.589711   -0.917538
H       0.624128   -0.574730   -0.621679
H       0.478947   -0.210372    1.101255
H      -1.558764   -2.824848   -0.362323
H      -4.024130   -1.870003    0.963373
H      -2.596530   -2.133885    2.001931
H      -2.314000    0.356097    1.997603
H      -4.547841    0.633224    0.496225
H      -3.181631    1.683602    0.019026
H      -1.809776   -0.898531   -2.097142
