17

N      -0.185746    1.181548   -0.154662
C      -0.168888   -0.065145   -0.049661
O       0.908577   -0.960797   -0.124064
C      -0.024034   -2.083369   -0.093524
C      -0.715851   -2.082104    1.221917
C      -1.193758   -1.133483    0.113397
C       0.247380   -3.207412   -1.014720
C       0.949226   -2.971922   -2.300258
N       1.634612   -3.670390   -1.196861
H       0.753067    1.556091   -0.300507
H      -1.388572   -2.915194    1.403064
H      -0.214950   -1.689254    2.101116
H      -2.200566   -1.131153   -0.276666
H      -0.482620   -4.010771   -0.946373
H       0.714864   -3.592862   -3.159758
H       1.246951   -1.953586   -2.528761
H       2.265251   -3.017981   -0.734353
