18

O      -0.028638    0.072226    0.173507
C      -0.031039    1.270730    0.085651
C      -1.268980    2.180619    0.111236
C      -0.685201    3.553176   -0.081456
C       0.646310    3.539699   -0.184758
C       1.230750    2.154804   -0.064100
C       2.182919    1.916629    1.105262
C       3.176173    2.931259    1.527131
N       2.012524    2.624949    2.381612
H      -1.971024    1.886386   -0.679188
H      -1.808575    2.056187    1.058966
H      -1.300258    4.443374   -0.149169
H       1.256397    4.419429   -0.355972
H       1.752014    1.845626   -0.981980
H       2.432001    0.864445    1.223164
H       4.135898    2.617899    1.928235
H       3.199148    3.882555    1.001667
H       1.313265    3.357535    2.268984
