19

C      -0.620496    1.358702   -0.083445
C      -0.024704   -0.042466   -0.090786
C       1.312476   -0.242473   -0.885570
C       2.012075   -0.654172    0.423122
N       2.453999    0.529137    1.217003
C       1.374066    0.312507    2.205753
C       0.729175    1.513773    2.744740
N       0.228525    2.442562    3.216904
C       0.656886   -0.626982    1.198137
H       0.120521    2.112493    0.193931
H      -0.986747    1.606997   -1.085809
H      -1.462150    1.440717    0.611107
H      -0.788235   -0.750169   -0.427878
H       1.258837   -1.046235   -1.625242
H       1.728118    0.652620   -1.354086
H       2.693565   -1.508688    0.428292
H       3.391741    0.484303    1.598121
H       1.689187   -0.286685    3.073190
H       0.179824   -1.503093    1.633502
