19

N      -0.092790    1.338584    0.212416
C      -0.009231   -0.048953    0.184736
O       1.047227   -0.653207    0.151169
N      -1.228997   -0.683081    0.171459
C      -2.500691   -0.214625   -0.414380
C      -2.800252   -1.675293   -0.781528
C      -4.087859   -2.412706   -0.587347
C      -3.532256   -2.191769   -1.978569
C      -1.405669   -2.074463   -0.273507
H       0.783659    1.772968    0.459350
H      -0.897459    1.748141    0.662967
H      -3.185223    0.249340    0.307271
H      -2.364637    0.462831   -1.267018
H      -4.043687   -3.414169   -0.170993
H      -4.964122   -1.844790   -0.290515
H      -4.033006   -1.474655   -2.621470
H      -3.112124   -3.043303   -2.504325
H      -0.684591   -2.367627   -1.044494
H      -1.377467   -2.807593    0.539624
