18

C      -0.579540   -0.113443    1.120211
C      -0.098314    0.424611    0.158275
C       0.523828    1.103693   -0.971636
C       1.706597    1.971602   -0.529794
O       2.329722    2.639627   -1.646828
C       2.215684    3.941285   -1.017322
C       1.433264    3.323057    0.134376
C       0.233746    3.790867    0.856531
N       1.548063    3.694361    1.532112
H      -1.017666   -0.605447    1.953235
H       0.888860    0.369558   -1.700719
H      -0.206105    1.732775   -1.493881
H       2.431332    1.352650    0.019181
H       3.193023    4.350409   -0.734139
H       1.685259    4.658469   -1.654125
H      -0.125462    4.805904    0.707063
H      -0.532823    3.061203    1.101294
H       1.576498    2.858764    2.113298
