14

O       0.109639    1.430895   -0.055849
C      -0.058798    0.062099    0.034873
C      -0.434287   -0.757121    1.247048
C      -1.620370   -0.185013    2.063971
N      -2.035032    1.128755    1.484545
C      -2.481809   -0.158252    0.870000
C      -1.344721   -0.728735   -0.014896
H      -0.615963    1.803159    0.476047
H       0.720316   -0.438632   -0.538473
H       0.171941   -1.573955    1.619788
H      -1.848992   -0.424588    3.093882
H      -2.806242    1.482213    2.048860
H      -3.536092   -0.372173    0.755528
H      -1.524427   -1.521059   -0.731551
