22

C      -0.114673   -1.196669    0.008254
C      -0.065252    0.001366    0.094172
C       0.029384    1.452959    0.190780
C       1.448580    1.986591   -0.091716
C       1.530487    3.511458    0.014508
C       2.933849    4.049918   -0.264596
N       2.954426    5.507604   -0.206882
C       3.222352    6.098032    1.100893
C       4.252564    6.128136    0.026290
H      -0.171180   -2.254188   -0.065305
H      -0.678816    1.912774   -0.511098
H      -0.287674    1.773667    1.191966
H       2.148410    1.519725    0.611622
H       1.755851    1.662109   -1.092947
H       0.831721    3.978223   -0.690328
H       1.216928    3.830449    1.017508
H       3.654492    3.599527    0.444684
H       3.251891    3.751974   -1.271661
H       2.651929    6.988915    1.347422
H       3.400909    5.424543    1.938511
H       5.116232    5.475983    0.149728
H       4.448093    7.041321   -0.528671
