17

C      -0.120876    1.547319    0.054629
C      -0.051982    0.047022   -0.010571
C      -0.006263   -0.644709   -1.160273
C       0.103151   -2.139556   -1.279204
C       0.529149   -2.803884    0.023541
O       1.300077   -3.729566    0.059930
C      -0.093965   -2.191040    1.262467
C      -0.002050   -0.662956    1.294933
O       0.088438   -0.066966    2.347031
H       0.730103    1.945980    0.615436
H      -0.126866    1.988643   -0.944769
H      -1.018549    1.873198    0.590371
H      -0.027852   -0.099208   -2.101525
H      -0.872913   -2.560440   -1.569676
H       0.804136   -2.428125   -2.068666
H      -1.167175   -2.435096    1.242859
H       0.335568   -2.612889    2.171792
