22

C       0.028826    1.533564   -0.087272
C       0.094382    0.015354    0.135089
C       0.778167   -0.319041    1.469001
C      -1.299025   -0.602621    0.070353
C      -2.015692   -0.769188   -1.279170
C      -1.224816   -2.050969   -1.689114
C      -2.547282   -2.772989   -1.911819
N      -2.907359   -1.907309   -0.708205
C      -1.471720   -2.114100   -0.149127
H       1.028582    1.979538   -0.063054
H      -0.424616    1.779807   -1.052811
H      -0.569423    2.017069    0.694152
H       0.699723   -0.418731   -0.673125
H       0.861749   -1.400310    1.618602
H       1.787090    0.104265    1.512343
H       0.209764    0.090521    2.312493
H      -1.952412   -0.205016    0.858080
H      -2.451096   -0.019550   -1.943929
H      -0.276031   -2.122591   -2.231074
H      -3.125245   -2.531877   -2.810526
H      -2.593045   -3.847679   -1.704943
H      -1.264893   -2.952296    0.520267
