18

C      -0.216801    1.585815   -0.076454
C       0.065465    0.074194   -0.046225
C       0.840000   -0.350847    1.160689
C       2.172498   -0.648185    1.365321
C       3.661764   -0.914597    1.143023
C       3.707164   -1.244050    2.686306
N       2.260004   -0.931965    2.673163
N       1.093154   -0.843449    3.324083
N       0.237961   -0.484424    2.391031
H       0.714889    2.160311   -0.102170
H      -0.807075    1.854921   -0.957969
H      -0.772362    1.887309    0.815780
H      -0.884789   -0.470475   -0.058965
H       0.612414   -0.220497   -0.948504
H       3.898813   -1.759536    0.493731
H       4.259430   -0.050375    0.847259
H       3.925557   -2.281299    2.946555
H       4.293935   -0.562771    3.305029
