13

C      -0.011563    1.463402    0.009900
C       0.009146    0.009851    0.002309
C       0.037324   -1.195230   -0.004052
C       0.031194   -2.608804   -0.011219
N       1.152209   -3.352297   -0.022147
N       0.688865   -4.591164   -0.025501
N      -0.629480   -4.744981   -0.017880
C      -1.073785   -3.491784   -0.008678
H       1.005529    1.869691    0.002306
H      -0.535342    1.857862   -0.867964
H      -0.518535    1.848881    0.901517
H       1.311505   -5.383061   -0.033494
H      -2.127603   -3.267185   -0.000807
