15

O      -0.910941    1.663374    0.175148
C       0.101773    1.141660   -0.195559
C       1.447995    1.860128   -0.346967
O       2.430827    1.273778   -0.725959
O       1.376924    3.148558   -0.018385
C       2.604743    3.895745   -0.134272
C       2.286870    5.330258    0.288210
C       3.467807    6.179572    0.208333
C       4.458994    6.853917    0.131999
H       0.184266    0.072174   -0.474030
H       3.365707    3.444682    0.508185
H       2.961973    3.848389   -1.166458
H       1.489565    5.723599   -0.353181
H       1.890526    5.322513    1.310288
H       5.327000    7.462564    0.069493
