15

N       0.015763   -1.159922   -0.101153
C       0.051429   -0.005766   -0.027919
C       0.062422    1.411629    0.143590
O       0.235273    2.246447   -1.002553
C       1.165061    2.409654    0.060041
C       0.518932    3.290243    1.154645
C      -0.565163    4.317693    0.714246
N      -1.607296    3.247662    0.741881
C      -0.643902    2.266938    1.258395
H       2.214117    2.263628   -0.170864
H       1.155126    3.526353    2.005380
H      -0.714814    5.111203    1.454025
H      -0.434569    4.763516   -0.275301
H      -2.384205    3.430872    1.363721
H      -0.879143    1.718889    2.171544
