22

C      -0.163810    1.472950   -0.076573
N       0.095150    0.048761    0.067736
C       1.412896   -0.516056   -0.155066
C       2.550157    0.329047    0.384688
C       3.204751   -0.403786    1.529266
C       1.899633    0.316644    1.776319
C       1.767540    1.405687    2.807839
C       0.761819   -0.542297    1.219136
C       0.079421   -1.655569    1.963135
H       0.670442    2.125222    0.214412
H      -0.404322    1.677295   -1.125326
H      -1.038764    1.739949    0.525255
H       1.512157   -1.326125   -0.871414
H       3.032476    1.161744   -0.115002
H       3.247437   -1.490347    1.521272
H       4.087573    0.068152    1.954071
H       2.684666    2.000934    2.871471
H       0.940621    2.086832    2.585113
H       1.585347    0.981473    3.802654
H      -0.607524   -1.258413    2.720399
H      -0.504521   -2.273195    1.276437
H       0.808446   -2.290508    2.477966
