22

C      -0.098441    1.538381    0.113302
C      -0.021045    0.010660   -0.026699
C      -1.428701   -0.596730   -0.094833
C       0.806693   -0.429001   -1.248244
C       2.271117   -0.022210   -1.180352
O       2.926921   -0.589976   -2.327511
C       4.225673   -0.236067   -2.481176
N       4.756944   -0.878842   -3.566387
O       4.830233    0.511779   -1.748663
H       0.886688    1.993503    0.250303
H      -0.553794    1.987954   -0.777491
H      -0.712365    1.818273    0.975532
H       0.472482   -0.386784    0.872264
H      -1.968057   -0.235463   -0.978705
H      -1.390836   -1.689563   -0.151798
H      -2.018794   -0.325710    0.786694
H       0.759494   -1.520458   -1.344093
H       0.361616   -0.016411   -2.163391
H       2.408403    1.062089   -1.195696
H       2.750269   -0.400734   -0.269931
H       4.130067   -1.288432   -4.237977
H       5.636775   -0.524546   -3.899853
