18

C      -0.596330    1.083617    0.246967
N       0.375636    0.069032   -0.188305
C       0.938348   -0.689685    0.858170
C       0.640805   -2.008888    1.146593
N      -0.279772   -2.877259    0.573008
N       1.400050   -2.298734    2.226115
C       1.490596   -3.533937    2.967309
N       2.156349   -1.214524    2.582543
N       1.858227   -0.252596    1.763225
H      -0.178690    1.813306    0.954736
H      -0.973834    1.617309   -0.630556
H      -1.441680    0.585962    0.731501
H       1.114043    0.519379   -0.718945
H      -0.641354   -2.462846   -0.279751
H       0.090877   -3.799588    0.374753
H       2.087677   -3.333102    3.857077
H       0.493386   -3.875072    3.260698
H       1.979565   -4.320294    2.380981
