21

C       0.141805   -1.252704    0.025652
C       0.096128   -0.052397    0.014260
C       0.002431    1.408943    0.014673
C      -0.847676    1.904603    1.206410
C      -1.452448    3.321782    1.073300
C      -0.708580    4.328205    0.174063
C       0.821479    4.348411    0.307731
C       1.521863    3.216165   -0.450986
O       1.331956    1.920136    0.084007
H       0.192737   -2.313377    0.027864
H      -0.461556    1.720461   -0.936303
H      -1.655172    1.187925    1.384239
H      -0.185481    1.846534    2.076170
H      -2.480242    3.240895    0.700392
H      -1.538609    3.742217    2.082217
H      -0.957042    4.136025   -0.878452
H      -1.107523    5.325943    0.389635
H       1.204501    5.291755   -0.102584
H       1.123184    4.320741    1.362293
H       1.203027    3.239395   -1.507888
H       2.605646    3.368889   -0.431483
