14

O      -0.038757   -0.028813    0.005629
C       0.007515    1.178553    0.010500
C      -1.206043    2.113990    0.030936
C      -0.791106    3.392856    0.030753
C       0.680524    3.376753    0.010309
C       1.181052    2.091670   -0.002081
C       2.595706    2.177900   -0.021491
C       2.903025    3.524752   -0.019924
N       1.718412    4.248226   -0.000352
H      -2.221171    1.744312    0.043270
H      -1.411384    4.280146    0.043055
H       3.310370    1.369967   -0.034912
H       3.853374    4.033313   -0.030950
H       1.659553    5.252645    0.004750
