20

C       0.001968    1.561942    0.022232
C       0.024455    0.034528    0.000398
C       0.805072   -0.570096   -1.194206
C       1.312385   -1.951441   -0.720454
C       1.497174   -1.779381    0.775168
N       2.191725   -0.530560    1.135194
C       0.700930   -0.596010    1.222417
C       0.072495   -0.528790    2.506458
C      -0.467075   -0.440137    3.578896
H       1.021099    1.954612    0.094663
H      -0.454408    1.960229   -0.889740
H      -0.570275    1.936659    0.876801
H      -1.007241   -0.341277   -0.013164
H       0.187002   -0.636404   -2.093359
H       1.657448    0.073196   -1.425939
H       0.563728   -2.733100   -0.896365
H       2.233701   -2.255369   -1.227419
H       1.610731   -2.644460    1.420511
H       2.569149   -0.617776    2.076053
H      -0.941109   -0.370919    4.526391
