14

C      -0.068245    1.475610    0.010668
C       1.394614    1.904285   -0.000945
C       2.234585    0.849356   -0.014822
C       1.446409   -0.376281   -0.014071
C       1.446546   -1.752884   -0.021660
N       0.126828   -2.111918   -0.010893
N      -0.735074   -1.061862    0.003015
C       0.075400   -0.019345    0.001028
H      -0.596991    1.849694    0.896521
H      -0.613774    1.859410   -0.860735
H       1.692708    2.945066    0.001953
H       3.315502    0.905329   -0.024863
H       2.226723   -2.497078   -0.033249
H      -0.250184   -3.043995   -0.012333
