20

C       0.107104    1.605779    0.009963
C       0.013474    0.093101    0.071707
O      -1.339327   -0.293812    0.120569
C      -1.492047   -1.466172    0.927953
C      -0.293698   -1.510671    1.909520
C       0.773223   -0.639485    1.234751
C       1.704608   -1.259850    0.178597
N       0.853701   -2.079204   -0.715445
C       0.955141   -0.617233   -0.938560
H       1.150568    1.931282   -0.044543
H      -0.416009    1.981421   -0.875553
H      -0.355802    2.052456    0.894659
H      -2.455790   -1.379852    1.441955
H      -1.502684   -2.357500    0.295306
H      -0.570323   -1.080207    2.876529
H       0.040535   -2.537009    2.079243
H       1.292356    0.033301    1.919384
H       2.764250   -1.461265    0.274289
H       1.467942   -2.524102   -1.396588
H       1.309463   -0.228018   -1.886469
