17

N       0.057948   -1.167467   -0.032426
C       0.014539   -0.012467   -0.011205
C      -0.016690    1.447473    0.030337
C      -0.771088    1.973034    1.274309
C      -0.669745    3.502882    1.332580
C       0.789111    3.945691    1.213766
O       1.391882    3.433516    0.032881
C       1.420023    2.026133    0.008551
H      -0.528213    1.801668   -0.873466
H      -1.813853    1.644471    1.249217
H      -0.318210    1.532544    2.171078
H      -1.243958    3.946651    0.510429
H      -1.097695    3.877036    2.268823
H       0.872486    5.033595    1.148232
H       1.358319    3.612496    2.098459
H       1.982533    1.626142    0.868296
H       1.939350    1.733728   -0.907095
