16

O      -0.052959    1.467111   -0.121958
C       0.003700    0.051655   -0.013227
C      -0.020488   -0.623612    1.398736
C      -1.514988   -0.166326    1.525078
O      -1.856226    1.146438    1.823922
C      -1.370279   -0.668561    0.042287
C      -0.607354   -1.866944    0.655647
O       0.196884   -2.594796   -0.238840
H       0.841455    1.812025   -0.036896
H       0.724923   -0.358198   -0.722190
H       0.755677   -0.611069    2.166490
H      -2.135289   -0.805697    2.161309
H      -1.327463    1.710455    1.240915
H      -2.130750   -0.703784   -0.737742
H      -1.217604   -2.530575    1.280189
H       0.758711   -3.181753    0.276453
