16

C       0.032948    1.637033   -0.088591
C       0.031792    0.116488   -0.035056
C       0.768925   -0.723929   -1.092043
C       1.194930   -1.742156   -0.133395
N       2.240268   -0.810430   -0.755223
C       2.341953   -0.212927    0.567316
O       3.307363    0.167589    1.158917
C       0.940579   -0.603544    0.992403
O       0.571609   -0.684040    2.303753
H       1.042863    2.035639   -0.228424
H      -0.588902    1.997733   -0.913959
H      -0.369035    2.053416    0.840294
H      -0.985689   -0.277120    0.062260
H       0.541936   -0.826192   -2.145109
H       1.329832   -2.813206   -0.126791
H       1.374862   -0.698072    2.841318
