21

C      -0.716892    1.048286   -0.065200
C      -0.014953   -0.282552    0.147900
C       1.286175   -0.606535   -0.658879
C       1.803613   -1.368805    0.598640
C       0.756000   -0.600511    1.460810
C       1.342821    0.607610    2.182860
O      -0.039455   -1.377135    2.335209
C       1.111332   -1.408963   -1.913957
O       1.521537   -1.103581   -3.004724
H      -0.032202    1.893938    0.053358
H      -1.140184    1.105857   -1.073468
H      -1.538437    1.174171    0.647907
H      -0.723987   -1.107253    0.006190
H       1.870547    0.289072   -0.882745
H       1.545864   -2.431084    0.554966
H       2.862509   -1.259632    0.845013
H       1.938433    1.235201    1.513305
H       0.549860    1.221585    2.619790
H       2.006584    0.276347    2.991629
H       0.426920   -1.471462    3.172872
H       0.539941   -2.357360   -1.760319
