21

C      -0.105250    1.416371    0.082149
C       1.301352    0.866120    0.035001
C       1.992894    0.563851    1.350465
O       1.065653   -0.202423    2.121420
C       0.163758   -0.867280    1.245984
C       0.571879   -2.265085    0.744592
C      -0.228736   -2.409870   -0.565123
C      -0.240158   -0.988462   -1.205711
C       0.110243   -0.061852   -0.049214
H      -0.483147    1.797122    1.027563
H      -0.449007    1.959104   -0.792752
H       1.913061    1.066249   -0.838033
H       2.920667   -0.000630    1.164907
H       2.251212    1.448546    1.943905
H      -0.796303   -0.915864    1.775879
H       1.649313   -2.268921    0.540537
H       0.367651   -3.059461    1.466953
H       0.184577   -3.169690   -1.233215
H      -1.255298   -2.716160   -0.334236
H       0.493634   -0.910224   -2.014805
H      -1.217452   -0.757808   -1.641317
