18

C      -0.090725    1.505680    0.065996
C       0.164345    0.036407   -0.004841
C       0.658901   -0.791778   -1.218242
C       1.287733   -1.731758   -0.188103
N       2.091937   -2.708154   -0.195227
O       2.387993   -3.114464   -1.509003
C       0.768618   -0.922484    0.965695
C       1.293723   -0.807061    2.356539
O      -0.667236   -0.848811    0.752810
H       0.757455    2.067109   -0.338173
H      -0.979145    1.770421   -0.518515
H      -0.261708    1.817878    1.099554
H      -0.126387   -1.203075   -1.856312
H       1.417010   -0.298440   -1.834299
H       2.999121   -3.844617   -1.362533
H       2.375504   -0.645184    2.345182
H       0.811782    0.022483    2.880267
H       1.097225   -1.726349    2.917700
