18

C       0.513445    1.504377   -0.187568
C       0.165938    0.049214    0.042615
O       0.949671   -0.862590   -0.779105
C       1.239976   -1.716912    0.351176
C       0.577179   -0.694158    1.332901
C       1.981166   -0.358570    1.923356
C       2.574343   -1.403423    0.990499
N       3.703734   -1.947003    0.815272
O       4.678226   -1.365973    1.641820
H       1.575284    1.700396   -0.018831
H       0.282822    1.780887   -1.221188
H      -0.075621    2.148004    0.474954
H      -0.902872   -0.108563   -0.164377
H       0.949426   -2.756780    0.185911
H      -0.208102   -0.949931    2.041254
H       2.344716    0.665067    1.803092
H       2.091443   -0.630664    2.977665
H       5.466170   -1.872237    1.415673
