15

C      -0.036116    1.545484    0.005879
C      -0.011530    0.004202    0.024172
C       0.739207   -0.529747    1.260195
O      -1.340898   -0.517736   -0.017706
C       0.646997   -0.485816   -1.193605
C       1.228993   -0.865242   -2.180951
C       1.881667   -1.297759   -3.299936
N       2.440424   -1.663424   -4.250424
H       0.975103    1.959142   -0.031262
H      -0.598183    1.901178   -0.859959
H      -0.522307    1.911204    0.917165
H       0.251311   -0.159471    2.168734
H       0.717944   -1.621344    1.269132
H       1.779352   -0.193513    1.269910
H      -1.792599   -0.208322    0.775788
