23

C      -0.086967    1.555089   -0.259945
C       0.015453    0.031628   -0.220857
C       0.869358   -0.590511   -1.358502
C       1.380699   -1.923736   -0.806385
C       2.610441   -1.937104    0.084945
C       3.614040   -0.810543    0.118092
O       4.540313   -0.895154   -0.959067
C       1.232546   -1.888413    0.705473
C       0.613635   -0.542992    1.091601
H       0.902729    2.018405   -0.166876
H      -0.528927    1.903138   -1.199774
H      -0.708176    1.934034    0.558660
H      -0.995056   -0.386617   -0.319158
H       0.276925   -0.741573   -2.265773
H       1.687670    0.086889   -1.636414
H       1.155721   -2.827171   -1.362567
H       3.093356   -2.909783    0.151003
H       3.118091    0.169902    0.129755
H       4.216911   -0.870363    1.031036
H       4.024387   -0.999480   -1.765532
H       0.907479   -2.770048    1.247011
H       1.350308    0.147397    1.519160
H      -0.159347   -0.675059    1.854620
