27

C       0.261296   -2.541356   -0.540582
C      -1.024838   -2.030758    0.127424
C      -1.012173   -2.383085    1.623116
C      -1.222917   -0.504849   -0.074327
C      -2.118273   -0.021921   -1.246371
C      -2.001266    1.512335   -1.337026
C      -1.710136   -0.637813   -2.596652
C      -3.581831   -0.385356   -0.935711
O      -4.413659    0.078982   -1.991783
H       0.366193   -3.624887   -0.417572
H       0.284843   -2.322351   -1.610915
H       1.141318   -2.070117   -0.086051
H      -1.871008   -2.563434   -0.325470
H      -0.200052   -1.857771    2.140283
H      -1.951731   -2.099385    2.109208
H      -0.862936   -3.457110    1.778148
H      -1.642351   -0.077905    0.846575
H      -0.235761   -0.037109   -0.186793
H      -0.984079    1.808166   -1.614898
H      -2.693234    1.909889   -2.083116
H      -2.234625    1.982890   -0.374838
H      -1.802934   -1.728439   -2.592212
H      -2.354005   -0.257496   -3.393110
H      -0.673413   -0.386554   -2.844131
H      -3.682916   -1.475165   -0.818755
H      -3.870780    0.078502    0.021800
H      -5.318551   -0.179309   -1.797144
