19

C      -0.047076    1.537524   -0.027156
C       0.066479    0.042905    0.046033
C       1.006246   -0.808386   -0.934760
C       0.601043   -1.863588    0.119374
C       0.713222   -0.751083    1.199586
O       0.668188   -3.256591    0.470252
C      -0.759742   -3.177461    0.836862
C      -0.875396   -1.943833   -0.118503
O      -1.270176   -0.580200    0.010618
H       0.940959    2.000657    0.040247
H      -0.512900    1.843985   -0.968369
H      -0.663824    1.910481    0.796148
H       0.681403   -0.968243   -1.964827
H       2.030353   -0.433196   -0.891296
H       1.749351   -0.475824    1.405761
H       0.129549   -0.831610    2.117662
H      -1.293745   -4.083599    0.543082
H      -0.886243   -2.978944    1.905405
H      -1.144606   -2.313606   -1.113378
