22

C       0.059756    1.253070   -0.261334
O       0.071062   -0.145160   -0.004876
C      -1.126668   -0.758271   -0.080296
N      -1.230278   -1.990033    0.153917
C      -2.544214   -2.578663   -0.003954
C      -2.641445   -3.354477   -1.322746
C      -3.903565   -4.217178   -1.386474
O      -2.625371   -2.379818   -2.359799
C      -2.144419   -2.846792   -3.597519
H       1.093789    1.589738   -0.177159
H      -0.308175    1.474410   -1.270678
H      -0.552718    1.792472    0.471759
H      -1.963143   -0.096366   -0.350772
H      -2.719236   -3.273223    0.825434
H      -3.357204   -1.832756    0.005754
H      -1.747579   -3.991470   -1.408406
H      -3.985813   -4.728084   -2.350045
H      -3.888806   -4.982760   -0.604239
H      -4.797335   -3.599258   -1.252680
H      -1.117556   -3.234512   -3.514132
H      -2.776948   -3.638116   -4.027553
H      -2.144397   -1.997040   -4.285584
