17

C       0.008093    1.466013   -0.161828
O       1.375550    1.860173    0.091590
C       2.026497    0.941806    1.002137
C       1.113656   -0.260377    1.082852
N       0.054737   -0.471968    2.128934
C      -0.499036   -1.141796    0.909560
C       0.885086   -1.625106    0.334851
N       0.619156   -1.009255   -1.007209
C       0.051202   -0.026962   -0.023632
H      -0.673726    1.900169    0.581351
H      -0.251221    1.832432   -1.157843
H       3.020100    0.724909    0.596956
H       2.141188    1.402789    1.990797
H       0.358126   -1.170737    2.811558
H      -1.462110   -1.652004    0.879533
H       1.383984   -2.588480    0.466009
H       1.492536   -0.642589   -1.396528
