12

N      -0.043207    1.231710    0.401110
C      -0.032028    0.033490   -0.002010
O       1.112492   -0.562988   -0.484447
N       1.128841   -1.887101   -0.930782
C       0.007283   -2.511124   -0.861771
N      -1.213785   -2.049917   -0.405697
C      -1.238412   -0.823330    0.010076
C      -2.448841   -0.262029    0.497094
C      -3.481360    0.199693    0.906816
H       0.881400    1.657972    0.314832
H       0.037660   -3.537353   -1.212028
H      -4.389403    0.615738    1.270488
