19

C      -0.115075    1.517339    0.007407
C       0.079900    0.028651    0.034442
C       1.037907   -0.758161   -0.899817
C       0.722443   -1.900565    0.130377
C       0.707791   -0.763065    1.212850
C      -0.797092   -2.038051   -0.107356
O      -1.179067   -0.652847   -0.163848
C       1.504853   -3.100614    0.249885
C       2.152968   -4.109155    0.349195
H       0.837307    2.032983    0.157961
H      -0.533424    1.830554   -0.954050
H      -0.807838    1.826366    0.796141
H       0.722411   -0.906445   -1.935146
H       2.076133   -0.428627   -0.843659
H       1.713427   -0.434014    1.477572
H       0.091609   -0.915820    2.101906
H      -1.034056   -2.544014   -1.049873
H      -1.309930   -2.548072    0.715667
H       2.728441   -4.997059    0.436684
