16

C       0.108043    1.355286    0.078952
O      -0.154463   -0.033281   -0.068769
C       0.541856   -0.655025   -1.043105
N       0.382463   -1.885443   -1.256679
C       1.140707   -2.488671   -2.295637
C       1.582132   -3.919779   -2.090553
C       0.485036   -3.607185   -3.072829
H       1.158165    1.542414    0.336078
H      -0.144429    1.912923   -0.831643
H      -0.525370    1.703092    0.895880
H       1.228924   -0.001992   -1.603125
H       1.823372   -1.841681   -2.852193
H       2.555733   -4.209662   -2.469814
H       1.299782   -4.378799   -1.150722
H      -0.530159   -3.857387   -2.789142
H       0.697413   -3.680196   -4.133648
