21

C       0.022032    1.445643   -0.007209
O      -0.034744    0.041694    0.124910
C      -1.316431   -0.555859    0.008339
C      -2.304759   -0.056508    1.053498
C      -1.793480   -0.584635   -1.487386
C      -1.196237   -1.997670   -1.576706
O      -0.865280   -2.704427   -2.483955
C      -1.078058   -2.108315   -0.050209
C       0.161555   -2.740368    0.563019
H       1.080752    1.712916   -0.047032
H      -0.461931    1.798820   -0.929359
H      -0.436965    1.965529    0.844551
H      -2.556451    0.999025    0.911481
H      -3.237369   -0.625555    0.995479
H      -1.890036   -0.177209    2.059634
H      -2.882496   -0.592240   -1.601394
H      -1.371852    0.162371   -2.163266
H      -1.986492   -2.609627    0.311302
H       1.060060   -2.199811    0.261389
H       0.111295   -2.737470    1.656178
H       0.250729   -3.777984    0.227970
