19

C       0.002477    1.527530   -0.031927
C       0.036185    0.010521    0.028213
O       0.754725   -0.502025   -1.111410
C       1.537554   -1.596957   -0.685285
C       1.847990   -2.584549   -1.769801
C       2.532060   -1.318793    0.436196
O       2.189034   -0.105434    1.104150
C       0.807531   -0.579882    1.206624
C       1.210550   -1.992182    0.730406
H       1.017215    1.922502    0.048833
H      -0.433972    1.858767   -0.977807
H      -0.606111    1.929043    0.785137
H      -0.988783   -0.398317    0.022923
H       2.354534   -2.088779   -2.603594
H       2.502706   -3.377005   -1.394875
H       0.931284   -3.045168   -2.151694
H       3.561489   -1.657684    0.483929
H       0.386230   -0.422954    2.200526
H       0.925978   -2.959619    1.122163
