22

C       0.042888    1.613136    0.216482
C       0.344489    0.111597    0.251166
C       0.671628   -0.496696   -1.110398
C       1.895234    0.091971   -1.792004
C       0.547464   -2.042204   -1.179641
C      -0.638458   -1.760417   -2.070851
O      -0.505312   -0.383235   -2.007345
N      -1.473426   -2.469218   -2.675666
C      -2.511182   -1.818551   -3.463767
H       0.922554    2.202196   -0.059081
H      -0.749644    1.826467   -0.506565
H      -0.290793    1.960293    1.198561
H       1.184117   -0.094721    0.927742
H      -0.522299   -0.422498    0.657681
H       2.784264   -0.049065   -1.168030
H       2.069209   -0.395670   -2.755138
H       1.770223    1.162602   -1.973567
H       1.373758   -2.562168   -1.668358
H       0.309467   -2.541946   -0.238516
H      -2.475322   -0.723046   -3.437325
H      -2.429372   -2.146541   -4.506206
H      -3.492855   -2.146503   -3.103965
