16

C      -0.525535   -1.233738   -0.207634
C      -0.207494   -0.091718   -0.004321
C      -0.002221    1.327915    0.109369
C       0.496693    2.105776    1.265107
C       1.708394    1.497826    1.991027
O       1.779733    0.062002    2.071582
C       2.608619    0.000965    0.873447
C       2.449094    1.513447    0.657295
N       1.252141    2.116573   -0.070973
H      -0.773856   -2.257519   -0.342329
H      -0.784908    1.867779   -0.424398
H      -0.037959    2.985005    1.615079
H       2.026519    2.003560    2.905058
H       3.638793   -0.278002    1.129336
H       2.213016   -0.681557    0.120754
H       3.332514    2.110919    0.441851
