14

O      -0.179821    1.338985    0.053018
C      -0.098141   -0.034467    0.035918
C       1.023887   -0.555029   -0.788896
O       1.755332    0.197108   -1.390846
C      -0.474249   -0.849613    1.255386
N      -1.549625   -0.203090    2.003311
C      -2.399217   -0.186010    0.871412
O      -3.498987    0.243354    0.703726
C      -1.362211   -0.923070    0.022993
H       0.511074    1.644937   -0.557169
H       1.151469   -1.654856   -0.818833
H       0.140229   -1.615581    1.711411
H      -1.390170    0.636168    2.550540
H      -1.526467   -1.717999   -0.691561
