14

C      -0.040170    1.499035   -0.039816
O       1.149765    0.690801    0.059174
C      -0.104572    0.042240   -0.000317
C      -0.555206   -0.955084    1.094284
C      -0.892884   -1.937450   -0.040196
N      -1.896112   -1.255339   -0.890919
C      -0.445775   -0.967433   -1.080780
H      -0.281088    2.076312    0.851472
H      -0.169766    2.024151   -0.984884
H       0.301839   -1.269192    1.695069
H      -1.387808   -0.663239    1.738217
H      -0.813614   -3.016670   -0.023075
H      -2.160494   -1.909466   -1.628135
H       0.048583   -1.118162   -2.032147
