19

C      -0.031202    1.491427   -0.209864
C       0.053371    0.027190    0.156133
N       1.246890   -0.829964   -0.053211
C       2.459135   -0.006078    0.301102
C       1.972795    0.222600    1.751375
C       0.704787   -0.539949    1.356604
C       0.132772   -1.666686    2.169557
O       1.113101   -2.652212    2.455144
H       0.770696    2.094537    0.219944
H      -0.005426    1.617254   -1.297818
H      -0.980241    1.903266    0.148702
H      -0.829456   -0.529397   -0.156064
H       3.351873   -0.630090    0.228562
H       2.600302    0.875822   -0.330814
H       2.560916   -0.334206    2.481923
H       1.844603    1.250351    2.103436
H      -0.222813   -1.298223    3.139137
H      -0.730440   -2.101669    1.642207
H       1.471403   -2.920496    1.600138
