19

C       0.071830    1.551094    0.395694
C       1.332258    1.924242   -0.420919
C       2.045980    0.583792   -0.772150
O       2.455057    0.569545   -2.154614
C       3.843642    0.284932   -2.276014
C       4.340792    0.147985   -0.864892
C       3.330850    0.319216   -0.021906
C       0.965887   -0.445119   -0.498307
C      -0.085504    0.072750    0.130534
H       0.210116    1.740536    1.468910
H      -0.811930    2.127548    0.098519
H       1.050822    2.382692   -1.372325
H       1.992751    2.621485    0.100421
H       3.992354   -0.635914   -2.862883
H       4.346909    1.098223   -2.822453
H       5.374707   -0.054488   -0.614890
H       3.364838    0.279225    1.059557
H       1.102239   -1.482998   -0.779716
H      -0.960048   -0.484857    0.449139
