19

C       0.034268    1.570005    0.045636
C       0.000886    0.032721   -0.017352
C      -1.399844   -0.523435    0.001238
C      -2.063508   -0.861205    1.178385
N      -3.313881   -1.324108    1.213072
C      -3.935802   -1.461751    0.036036
C      -5.347339   -1.979454    0.045688
N      -3.397160   -1.181901   -1.159803
C      -2.148977   -0.721965   -1.159760
H       1.064686    1.937910    0.029318
H      -0.497370    2.009259   -0.804382
H      -0.443460    1.935392    0.960134
H       0.513420   -0.303963   -0.926022
H       0.565282   -0.377368    0.828089
H      -1.561570   -0.759415    2.140533
H      -6.011144   -1.282289   -0.474703
H      -5.405155   -2.932344   -0.490749
H      -5.692505   -2.120837    1.070008
H      -1.714810   -0.503733   -2.135628
