21

C      -0.204914    1.613411    0.200122
C      -0.068629    0.097979    0.166383
C       0.710895   -0.556268   -1.003403
C       1.273494   -1.601269   -0.005926
O       2.585990   -2.052436   -0.132053
C       0.888788   -0.648819    1.184238
C       2.026968    0.217159    1.668360
C       1.907200    0.793434    3.063669
O       2.998819    0.455498    0.971338
H       0.770126    2.105429    0.126605
H      -0.811768    1.956123   -0.644963
H      -0.695361    1.959412    1.117138
H      -1.058839   -0.359385    0.259520
H       0.140820   -0.918178   -1.862419
H       1.513051    0.099280   -1.355097
H       0.638267   -2.491759    0.027899
H       3.146344   -1.266074   -0.056007
H       0.381151   -1.105452    2.038363
H       1.941590   -0.019729    3.798570
H       2.722873    1.491725    3.254983
H       0.941719    1.294380    3.193170
