18

O      -0.061118    1.446690    0.085357
C      -0.008024    0.031865    0.011406
C       0.699676   -0.618876    1.226166
C       0.020787   -2.004752    1.392347
C       0.087200   -2.520137    2.760543
N       0.138703   -2.922641    3.842961
C      -1.404463   -1.800164    0.866410
C      -2.146171   -0.574179    1.327124
C      -1.407783   -0.552441    0.012925
H       0.830430    1.789630   -0.032934
H       0.494594   -0.279238   -0.918261
H       1.781134   -0.706603    1.098363
H       0.523025    0.003669    2.106477
H       0.523318   -2.735057    0.746370
H      -1.967057   -2.683754    0.590149
H      -3.228010   -0.616778    1.278474
H      -1.768059    0.004582    2.162212
H      -1.978941   -0.502818   -0.906481
