19

C      -0.019030    1.449486    0.062258
C      -0.023293   -0.039338    0.020823
C      -0.008300   -0.900313   -1.006301
C       0.023729   -2.265356   -0.313631
O       0.036439   -3.461991   -1.030911
C      -1.035090   -2.067570    0.809010
C      -0.009469   -0.967293    1.245141
C       1.114021   -1.970194    0.785341
O       1.364582   -3.036424    1.663916
H       0.856948    1.830709    0.602466
H      -0.010064    1.877529   -0.944242
H      -0.900480    1.836540    0.589272
H       0.008760   -0.715625   -2.072524
H       0.655146   -3.373500   -1.764387
H      -2.029433   -1.739250    0.500793
H      -1.079668   -2.904397    1.507551
H      -0.011651   -0.530594    2.242108
H       2.047365   -1.507942    0.435600
H       1.299371   -3.847353    1.144309
