21

C      -0.321778    1.512656    0.512018
C      -0.202720    0.012955    0.434969
O       0.904859   -0.515867   -0.308499
C       0.847722   -0.788878    1.091622
C       1.938343   -0.212764    2.000093
C       1.858038   -1.050500    3.266051
C       0.494806   -1.232671    3.889381
C       1.043863   -2.295193    2.968231
C       0.615400   -2.244372    1.512248
H       0.648083    1.983671    0.685703
H      -0.724716    1.907385   -0.426710
H      -1.004782    1.805180    1.317462
H      -1.144516   -0.502798    0.230290
H       2.911744   -0.352010    1.514053
H       1.816507    0.859057    2.181927
H       2.728062   -1.093508    3.911159
H       0.460496   -1.463789    4.948425
H      -0.328415   -0.612187    3.546778
H       1.315955   -3.254104    3.394158
H      -0.418293   -2.563095    1.342188
H       1.260899   -2.891389    0.905395
