11

N       0.034676    1.348138    0.142118
C      -0.011448   -0.011505    0.042621
N      -1.135656   -0.703663    0.000539
O      -0.691075   -2.030800   -0.026141
C       0.638704   -1.983242   -0.007377
C       1.434499   -3.235320   -0.033076
O       0.953525   -4.337290   -0.068729
N       1.131003   -0.778225    0.032685
H       0.889510    1.769482   -0.185415
H      -0.808063    1.836066   -0.119477
H       2.523649   -3.040991   -0.016198
