18

C      -0.144267    0.635740   -0.568010
O      -0.426027   -0.171283    0.565388
C       0.677957   -0.326260    1.426400
C       0.238228   -1.013380    2.746281
C       0.876321   -2.293295    2.242724
N       0.835101   -3.520021    2.550133
O       0.055508   -3.728751    3.699645
C       1.535664   -1.604899    1.050009
O       1.359474   -2.133107   -0.231907
H       0.655419    0.207474   -1.183705
H      -1.063861    0.690315   -1.155600
H       0.144657    1.652802   -0.264374
H       1.232859    0.614806    1.525256
H       0.700745   -0.603227    3.648538
H      -0.843865   -1.056003    2.892588
H       0.094595   -4.686155    3.801119
H       2.611019   -1.455083    1.191346
H       0.405751   -2.184823   -0.374543
