21

O      -0.052473    1.423925   -0.033258
C       0.010575    0.005604    0.023060
C      -1.414439   -0.536284    0.020142
C      -2.162906   -0.139910   -1.259861
O      -3.481906   -0.662199   -1.287393
C      -3.495440   -2.074330   -1.237167
C      -2.857501   -2.601486    0.056406
O      -2.787001   -4.020236    0.056451
C      -1.434422   -2.064459    0.180142
H       0.844958    1.766106   -0.074554
H       0.562151   -0.402450   -0.840735
H       0.530327   -0.335270    0.932757
H      -1.944836   -0.080064    0.866406
H      -2.256135    0.944658   -1.331874
H      -1.597663   -0.495921   -2.140537
H      -4.545904   -2.379273   -1.307318
H      -2.954685   -2.509924   -2.095243
H      -3.453658   -2.237269    0.908600
H      -3.685587   -4.365627    0.060488
H      -0.827684   -2.533505   -0.607098
H      -1.003475   -2.369774    1.139933
