20

C       0.266251    0.775115    0.492444
O      -0.362729    0.271639   -0.677215
C       0.453087   -0.525331   -1.495802
C       0.532217   -2.012147   -1.086873
C      -0.847325   -2.588584   -0.777276
C       1.415358   -2.842112   -2.055107
O       2.371118   -3.103811   -0.981956
C       1.616690   -2.386546   -0.080845
N       1.805306   -2.172863    1.141120
H       0.558138   -0.022187    1.184610
H       1.161759    1.361239    0.234778
H      -0.459001    1.435822    0.973632
H       0.000983   -0.489226   -2.495767
H       1.468859   -0.104942   -1.574692
H      -1.506979   -2.489132   -1.646155
H      -0.783456   -3.647218   -0.509738
H      -1.302956   -2.046568    0.053255
H       0.977006   -3.772211   -2.425363
H       1.889491   -2.291662   -2.873110
H       2.663220   -2.617001    1.472510
