16

C      -0.004583    1.378264   -0.001710
N      -0.080872   -0.064182    0.138776
C      -1.191550   -0.623212    0.037210
C      -2.675359   -0.263908   -0.143006
C      -2.905096   -1.771557   -0.060987
C      -2.099352   -2.518638   -1.056336
C      -1.760421   -1.960829   -2.342591
N      -1.502540   -1.522718   -3.381204
N      -1.435737   -2.057684    0.206202
H       0.672367    1.616428   -0.828568
H      -0.969965    1.870347   -0.186478
H       0.438110    1.801420    0.906299
H      -3.079201    0.276321    0.716610
H      -2.976572    0.239972   -1.064243
H      -3.679730   -2.267165    0.511783
H      -2.213565   -3.598286   -1.065017
