14

N       0.035293    1.368370    0.205197
C      -0.010009   -0.001218    0.073504
C      -1.227685   -0.688677    0.014711
C      -1.189791   -2.076118   -0.064215
O      -2.370449   -2.736527   -0.121698
C       0.040937   -2.740000   -0.081637
C       1.165118   -1.931218   -0.020558
F       2.358190   -2.523639   -0.041285
N       1.183602   -0.621275    0.050941
H       0.931221    1.777997   -0.009975
H      -0.762986    1.892280   -0.114387
H      -2.178672   -0.171858    0.037682
H      -2.202197   -3.683790   -0.169569
H       0.128862   -3.817438   -0.143575
