16

O      -0.231681   -0.071345   -0.124379
C      -0.152948    1.134985   -0.074186
N      -1.113363    2.050842   -0.496714
C      -0.763601    3.397012   -0.118406
C      -1.043067    3.898285    1.336996
C       0.487528    4.109915    1.536083
C       0.756006    3.305704    0.234399
N       0.914722    1.877083    0.412643
H      -2.067293    1.731661   -0.546564
H      -1.024986    4.124876   -0.889830
H      -1.674534    4.784378    1.430379
H      -1.452851    3.105650    1.966940
H       0.785363    5.157176    1.434968
H       0.930325    3.700556    2.445932
H       1.482340    3.725507   -0.469434
H       1.813579    1.429654    0.474684
