14

C      -0.037454    1.555648    0.034846
C       0.002600    0.016954    0.044031
N       0.673365   -0.453182    1.252003
C      -1.373533   -0.517855    0.033852
N      -2.452985   -0.926097    0.028852
C       0.709196   -0.491694   -1.241752
F       1.971307   -0.037929   -1.273657
F       0.757246   -1.828820   -1.259550
F       0.092889   -0.082049   -2.352315
H       0.983659    1.945146    0.020611
H      -0.567188    1.926587   -0.843631
H      -0.539625    1.903544    0.938038
H       0.729934   -1.467333    1.253618
H       1.623313   -0.093540    1.266110
