24

C       0.404719    1.434897    0.549085
C       0.233436   -0.038753    0.173061
C       1.186630   -0.478575   -0.940481
N       1.013528   -1.898830   -1.222824
C       0.036883   -2.271381   -2.240477
C       1.493047   -2.479865   -2.481477
C       2.235054   -1.706315   -3.551737
C       3.734327   -1.614718   -3.282438
O       4.331541   -0.958825   -4.390434
H       1.421153    1.639960    0.903696
H       0.216565    2.091384   -0.308038
H      -0.288040    1.723563    1.345267
H       0.400496   -0.678301    1.046928
H      -0.798815   -0.222855   -0.150537
H       1.027054    0.164447   -1.823335
H       2.223740   -0.322108   -0.615982
H      -0.618799   -3.105200   -2.002059
H      -0.440714   -1.467823   -2.802347
H       1.877146   -3.491202   -2.340349
H       2.093698   -2.212405   -4.514792
H       1.832038   -0.696578   -3.671862
H       3.915839   -1.063951   -2.346045
H       4.146719   -2.628315   -3.147205
H       5.276112   -0.888484   -4.225308
