18

C      -0.404563    1.451345    0.012387
C       0.033597   -0.035231   -0.037330
C       0.824180   -0.342464   -1.286585
C       2.146116   -0.507658   -1.311411
C       2.973736   -0.367648   -0.086366
N       2.857672    0.924993    0.618052
C       2.272707   -0.289120    1.236914
C       0.779943   -0.400400    1.247040
O       0.194581   -0.807185    2.226919
H       0.470316    2.103318    0.050015
H      -0.990258    1.701181   -0.877617
H      -1.025763    1.628833    0.894871
H      -0.876997   -0.645456   -0.024632
H       0.252388   -0.403966   -2.209463
H       2.662142   -0.720614   -2.242708
H       3.949760   -0.845175   -0.093305
H       3.728051    1.138632    1.100540
H       2.750330   -0.706481    2.118170
