19

C      -0.025544    1.498338    0.120996
C      -0.089514    0.013576   -0.004746
C      -0.092073   -0.784616   -1.081998
C      -0.030921   -0.483644   -2.540005
C       0.014646   -2.192982   -0.494105
O       1.386790   -2.357051   -0.048642
C       1.450067   -1.547947    1.131499
C       0.008401   -0.947310    1.179104
O      -0.713783   -2.099457    0.706626
H       0.898054    1.819790    0.620338
H      -0.060663    1.989810   -0.854924
H      -0.857110    1.884421    0.724109
H       0.894230   -0.878527   -2.978913
H      -0.862377   -0.951333   -3.082227
H      -0.063094    0.591213   -2.737831
H      -0.273935   -3.055074   -1.093528
H       1.646980   -2.181937    2.002591
H       2.233006   -0.787665    1.040722
H      -0.352701   -0.617232    2.151990
