15

O      -0.539693    0.770437   -0.765097
C       0.102995    1.057317    0.203884
C       1.320828    2.005061    0.150849
C       1.407111    2.764121   -1.185247
C       2.697553    3.595958   -1.304313
C       2.785853    4.280917   -2.591801
N       2.842345    4.813545   -3.615246
C       1.304247    2.890587    1.315890
N       1.271681    3.593528    2.232730
H      -0.114896    0.644843    1.209768
H       2.199069    1.348134    0.261774
H       1.349906    2.029649   -1.991151
H       0.534060    3.413628   -1.289105
H       2.747470    4.344102   -0.505015
H       3.580029    2.954417   -1.192545
