19

C      -0.128104    1.563332   -0.008287
C       0.039831    0.048466    0.016206
C       1.104362   -0.526218   -0.945216
O       2.256398    0.198138   -0.484919
C       2.326353   -0.427720    0.808918
C       2.716446   -1.842572    0.347465
C       1.344294   -2.000706   -0.330566
O       0.526477   -1.995667    0.853115
C       0.771918   -0.622968    1.202345
H       0.830166    2.077792    0.075415
H      -0.603565    1.884004   -0.941898
H      -0.772902    1.889319    0.814892
H      -0.929338   -0.446606   -0.082013
H       0.983076   -0.428436   -2.022385
H       2.967635    0.133079    1.485015
H       3.588563   -1.796430   -0.305622
H       2.838956   -2.598358    1.123955
H       1.129987   -2.864972   -0.955184
H       0.466327   -0.412935    2.225552
