22

C      -0.294152    1.425072    0.024989
O      -0.070641    0.035310   -0.011874
C       0.464171   -0.475465    1.190369
C       0.716920   -1.966739    1.048998
C      -0.202002   -2.769051    0.203917
N       1.171600   -2.464189   -0.256089
C       1.380961   -2.567556    2.256283
C       2.173713   -3.841483    2.146434
C       2.886827   -2.535165    2.384575
H       0.636815    1.981632    0.214262
H      -0.691212    1.718552   -0.949609
H      -1.022459    1.698874    0.803852
H       1.412209    0.034692    1.432591
H      -0.227110   -0.290196    2.030641
H      -0.376864   -3.812279    0.451234
H      -1.023107   -2.256178   -0.285954
H       1.116753   -1.696337   -0.922093
H       0.819175   -2.427986    3.177295
H       2.108853   -4.553347    2.961814
H       2.265661   -4.273917    1.157136
H       3.444372   -2.124099    1.549837
H       3.320683   -2.344013    3.359845
