21

C       0.192129    1.639451   -0.082291
C       0.043920    0.116177    0.048675
C       0.685293   -0.634335   -1.144925
C       2.147506   -0.841492   -0.715347
C       2.035705   -1.213113    0.773617
O       3.166151   -0.870742    1.560300
C       0.791114   -0.459470    1.261914
C       0.702879    0.077692    2.623450
O       0.020141   -1.128947    2.269272
H       1.242924    1.939295   -0.155864
H      -0.322044    1.998167   -0.980143
H      -0.238701    2.159988    0.777891
H      -1.017996   -0.127115    0.147953
H       0.197273   -1.606554   -1.280472
H       0.589382   -0.089482   -2.088396
H       2.671249   -1.598814   -1.306281
H       2.714473    0.092835   -0.795232
H       1.813835   -2.286613    0.874284
H       3.875304   -1.483825    1.344268
H       1.552448   -0.042664    3.291072
H       0.059813    0.933049    2.827710
