18

N       0.011598    1.304940   -0.354376
C       0.044618    0.040797    0.158973
O       1.055353   -0.444802    0.628570
C      -1.302100   -0.694648    0.134529
C      -1.082825   -2.204085   -0.052836
O      -2.276863   -2.926768    0.189937
C      -2.691088   -2.847304    1.538578
C      -2.648161   -1.446706    2.083009
C      -2.041232   -0.456157    1.436326
H       0.866178    1.837821   -0.365011
H      -0.799026    1.678983   -0.814634
H      -1.903749   -0.305634   -0.699574
H      -0.788778   -2.434881   -1.080052
H      -0.274538   -2.523900    0.617936
H      -3.715656   -3.237127    1.566959
H      -2.079288   -3.513366    2.175307
H      -3.141303   -1.275143    3.036114
H      -2.040259    0.554107    1.836627
