17

O       0.158177    1.433442    0.167405
C       0.014217    0.056427   -0.005717
C      -1.379890   -0.631140   -0.093426
C      -2.335657    0.193263   -0.950291
N      -1.610137    0.673152   -2.130319
C      -0.374997    0.180147   -2.492472
O       0.159205    0.429949   -3.550759
C       0.247832   -0.651710   -1.374858
N      -0.783933   -1.682667   -0.987021
H      -0.291267    1.876926   -0.562935
H       0.621922   -0.422919    0.766974
H      -1.872264   -0.985298    0.814612
H      -3.188241   -0.430371   -1.245084
H      -2.714418    1.045660   -0.372759
H      -2.125388    1.127817   -2.870966
H       1.232507   -1.010018   -1.671527
H      -0.322313   -2.376118   -0.400309
