17

C       0.111049    1.494703    0.032301
C      -0.030169    0.017952    0.032857
C      -1.122143   -0.820067   -0.021648
C      -2.523806   -0.424532   -0.100112
O      -2.943213    0.715878   -0.129397
C      -0.604182   -2.174951    0.014389
C      -1.382701   -3.453658   -0.020273
C       0.740020   -2.039055    0.086159
O       1.099983   -0.714776    0.098198
H       0.714541    1.828260   -0.819514
H      -0.879277    1.945111   -0.026185
H       0.614700    1.838522    0.942927
H      -3.235080   -1.278962   -0.133815
H      -1.979909   -3.539317   -0.934841
H      -0.713015   -4.316762    0.021277
H      -2.075580   -3.528816    0.825123
H       1.554531   -2.742685    0.134204
