23

C      -0.093695    1.505812   -0.023676
C       0.006380   -0.002112    0.045122
C       1.337039   -0.696060   -0.173913
C       0.692369   -0.706207    1.184691
C       1.282673   -0.004383    2.430866
C       0.922720   -1.075392    3.483784
C       1.315882   -2.395613    2.755862
C       0.142474   -1.982940    1.817865
C      -0.545774   -1.426738    3.099821
H       0.806322    1.984594    0.375306
H      -0.215160    1.845122   -1.058503
H      -0.949212    1.880356    0.550510
H      -0.858366   -0.521568   -0.364363
H       1.354977   -1.617601   -0.748436
H       2.211392   -0.067157   -0.318828
H       2.362575    0.159485    2.356226
H       0.808237    0.958846    2.645542
H       1.216282   -0.876035    4.515022
H       2.317617   -2.469566    2.322358
H       1.090645   -3.285593    3.348551
H      -0.350447   -2.693286    1.152178
H      -0.966729   -2.214620    3.729114
H      -1.262184   -0.607594    2.985589
