20

C       0.379276    0.141635    1.703099
C       0.033487    0.012700    0.214467
C      -1.286653   -0.698830   -0.060939
C      -2.534152   -0.010736    0.484801
C      -2.747156    1.354421   -0.135804
O      -2.883891    2.379917    0.480902
C      -1.422446   -1.444597   -1.370736
C      -1.276527   -2.209223   -0.077464
H       1.367811    0.592381    1.832629
H      -0.339780    0.774418    2.232082
H       0.389057   -0.838546    2.191382
H       0.013497    1.012047   -0.240988
H       0.833850   -0.535378   -0.296874
H      -3.414883   -0.620756    0.240175
H      -2.501191    0.104282    1.572216
H      -2.765102    1.350104   -1.250839
H      -2.389574   -1.457712   -1.862608
H      -0.581162   -1.430558   -2.055459
H      -0.332970   -2.709394    0.114310
H      -2.142533   -2.737466    0.307054
