15

C      -0.041131    1.473917    0.043226
C      -0.015032    0.019521    0.028071
C       0.022331   -1.182418    0.013436
C       0.034037   -2.644081   -0.000653
C      -1.416216   -3.204004   -0.158911
C      -1.482385   -4.653928   -0.001760
N      -1.529201   -5.798854    0.142726
C       0.910893   -3.157554   -1.067102
N       1.592291   -3.559071   -1.908207
H       0.609953    1.882940   -0.736254
H      -1.053500    1.852186   -0.132652
H       0.301386    1.864493    1.007026
H       0.431993   -3.017933    0.951811
H      -2.044744   -2.730079    0.600314
H      -1.810633   -2.918957   -1.138087
