21

C      -0.075178    1.539156    0.111332
C      -0.001526    0.010011    0.013382
C       0.696828   -0.478332   -1.224668
C       0.961999   -1.984887   -1.643475
C       0.220903   -1.714213   -2.979852
C       0.332007   -0.195173   -2.718039
O       1.660555    0.301235   -2.993065
C       2.146872   -0.155679   -1.711457
C       2.478404   -1.664434   -1.728373
H       0.925245    1.983453    0.123243
H      -0.616370    1.965190   -0.739616
H      -0.590568    1.849008    1.025307
H       0.512842   -0.392130    0.897180
H      -1.016029   -0.411054    0.041882
H       0.652763   -2.846774   -1.051264
H       0.662526   -2.090665   -3.906810
H      -0.824087   -2.037279   -2.918614
H      -0.441834    0.479790   -3.091950
H       2.850614    0.551899   -1.266161
H       2.990586   -1.953715   -0.804222
H       3.043003   -2.037479   -2.587406
