18

C       0.089398    1.527021    0.349148
C       0.115437    0.053272    0.017653
C       0.506401   -0.599395   -1.248738
C       1.669244    0.049323   -2.008607
C       1.611176    1.350753   -2.808047
O       2.921458    1.758661   -3.150662
C       2.375370    0.051248   -0.651801
O       3.399555    0.510673   -0.237774
N       1.378082   -0.756261    0.022126
H      -0.860089    1.964450    0.023933
H       0.168830    1.660033    1.432639
H       0.902558    2.089591   -0.110839
H      -0.651354   -0.504698    0.552726
H      -0.034446   -1.462487   -1.620463
H       2.161279   -0.709233   -2.629434
H       1.071486    1.197518   -3.748592
H       1.074030    2.132348   -2.252251
H       3.439710    1.779531   -2.335866
