16

N       0.033092    1.395188    0.016540
C       0.016507    0.122907    0.003305
O      -1.132640   -0.577064   -0.063539
C      -2.336610    0.198266   -0.130128
C      -3.497264   -0.788581   -0.199338
C      -4.834010   -0.096679   -0.036057
O      -5.766976   -0.221769   -0.784680
C       1.162929   -0.742101    0.056141
C       2.152729   -1.422497    0.102540
H       0.988373    1.740606    0.070062
H      -2.401515    0.843821    0.753332
H      -2.300695    0.852201   -1.007239
H      -3.494585   -1.351891   -1.135169
H      -3.391346   -1.499309    0.632493
H      -4.907459    0.553482    0.867343
H       3.025886   -2.026898    0.142709
