16

O       0.010836    0.182488   -0.817937
C       0.073094    1.158405   -0.123050
O      -0.997031    1.501979    0.649699
C      -1.161233    2.809190    1.156434
C      -0.628108    3.127435    2.523056
C       0.046506    3.691247    1.290549
N       1.317838    3.236246    0.774426
C       1.983544    2.071866    1.317802
C       1.301662    2.001210   -0.016680
H      -2.112614    3.221944    0.838157
H      -1.188515    3.814728    3.146622
H      -0.147435    2.320962    3.063885
H      -0.100084    4.750082    1.102339
H       3.067536    2.129778    1.350500
H       1.533025    1.520628    2.138712
H       1.896288    2.001164   -0.923929
