19

C      -0.178931    1.504323    0.137863
N       0.051782    0.078235   -0.053452
C       0.649944   -0.455404   -1.259543
C       1.443609    0.470150   -2.177836
N       2.522977    0.966376   -1.343051
C       3.500056    1.918271   -1.816359
C       2.590181    0.387437   -0.097169
O       3.462853    0.576582    0.725776
C       1.384944   -0.517437    0.044179
H       0.594645    2.166025   -0.274053
H      -1.137927    1.760830   -0.322972
H      -0.256221    1.698829    1.211176
H       0.151624   -1.310683   -1.705263
H       1.832892   -0.089564   -3.040127
H       0.834755    1.296317   -2.571903
H       3.031846    2.871735   -2.090145
H       4.213699    2.084391   -1.007490
H       4.035245    1.533735   -2.694040
H       1.487384   -1.392352    0.676771
