20

C       0.229894    1.280266    0.275988
O       0.051996   -0.098517    0.053831
C       0.558964   -0.558705   -1.186646
C       2.073223   -0.819468   -1.130342
C       2.121357   -2.182627   -0.431327
O       0.942648   -2.876150   -0.833654
C       0.021578   -1.975144   -1.460798
C      -1.388960   -2.258827   -0.969482
H       1.290470    1.568382    0.328223
H      -0.248842    1.881881   -0.512806
H      -0.240494    1.515993    1.233746
H       0.274689    0.138609   -1.988276
H       2.474203   -0.886836   -2.147283
H       2.624878   -0.040580   -0.599188
H       2.998054   -2.777082   -0.710962
H       2.123757   -2.059279    0.660697
H       0.065087   -2.136306   -2.550724
H      -1.469140   -2.057661    0.099555
H      -2.113642   -1.631722   -1.499122
H      -1.639031   -3.306639   -1.156064
