21

C       0.118594    1.634410    0.042924
C       0.005028    0.119762    0.004941
C       0.937316   -0.680313   -0.991986
C       1.017996   -1.748917    0.096147
C       1.781762   -2.857414    0.834868
C       0.336081   -2.981912    1.429318
C       0.025182   -1.669314    2.214701
C       0.649942   -0.709609    1.170232
O      -0.168992   -2.613568    0.115001
H       1.155601    1.951426    0.204544
H      -0.222986    2.083353   -0.896383
H      -0.487966    2.055216    0.852756
H      -1.031259   -0.188075   -0.149707
H       0.534620   -0.987621   -1.959454
H       1.890185   -0.162305   -1.137583
H       2.018703   -3.731337    0.226449
H       2.616317   -2.570875    1.481008
H      -0.050752   -3.928788    1.807784
H      -1.055061   -1.566611    2.346046
H       0.503552   -1.606937    3.196417
H       1.522874   -0.174888    1.558230
