19

C      -0.125869    1.495756    0.050710
C       0.022107   -0.012279   -0.063611
O      -1.196690   -0.606255   -0.450481
C       1.329165   -0.585234   -0.659626
O       2.049742   -0.018249    0.551086
C       0.841112   -0.757260    1.057321
C       0.221510   -1.644957    2.145914
C      -0.009529   -2.670216    0.936202
C       1.150304   -1.917250    0.161748
H       0.803283    1.959298    0.376862
H      -0.402028    1.923157   -0.922610
H      -0.922716    1.739953    0.761110
H      -1.667469    0.021619   -1.006258
H       1.831017   -0.388345   -1.612460
H       0.956931   -2.030380    2.855835
H      -0.652646   -1.266410    2.681579
H       0.228748   -3.710470    1.163777
H      -1.003392   -2.593347    0.508878
H       2.120615   -2.366751    0.378617
