16

O       0.014734    1.449613   -0.073785
C       0.043881    0.051920    0.015999
C      -0.041846   -0.618289    1.435416
C      -1.494458   -0.063373    1.513365
C      -1.356789   -0.619377    0.060886
C      -0.643457   -1.855783    0.680104
O       0.161271   -2.587685   -0.212705
C      -1.457980   -2.778383    1.480238
N      -2.041275   -3.559797    2.101581
H       0.921303    1.769089   -0.096467
H       0.764532   -0.387715   -0.674887
H       0.711329   -0.649200    2.223722
H      -2.190454   -0.576399    2.178488
H      -1.574968    1.017333    1.587405
H      -2.108477   -0.648250   -0.727036
H       0.629524   -3.269513    0.281562
