16

N       0.143240    1.383920   -0.103722
C      -0.042703   -0.019261    0.047907
C      -0.424973   -0.604448    1.380977
C      -0.692367    0.229415    2.521046
N      -0.856026    0.856950    3.478143
C      -1.412980   -0.710113    0.204621
C      -2.641770    0.136843    0.193163
N      -3.742075   -0.451239   -0.363218
O      -2.659532    1.287984    0.600822
H       0.152992    1.626923   -1.089134
H      -0.633442    1.885290    0.322880
H       0.686695   -0.606314   -0.502087
H       0.052624   -1.540710    1.651782
H      -1.509174   -1.708565   -0.210325
H      -3.785186   -1.440558   -0.535002
H      -4.609065    0.059969   -0.314477
