21

C       0.702537    0.278876    1.536010
C       0.248023   -0.636370    0.498558
C      -0.122582   -1.389772   -0.365124
C      -0.578528   -2.293736   -1.412308
C      -1.692995   -3.280324   -1.008579
O      -2.576793   -3.538377   -1.790336
C      -1.619633   -3.927178    0.373830
C      -2.620734   -3.205737    1.300082
C      -1.926484   -5.427332    0.279293
H       1.793747    0.376102    1.531197
H       0.279457    1.279710    1.396518
H       0.405932   -0.069561    2.531441
H      -0.936308   -1.748314   -2.291165
H       0.262935   -2.917231   -1.753397
H      -0.611543   -3.774713    0.774767
H      -2.585909   -3.641847    2.303251
H      -2.392133   -2.139733    1.382263
H      -3.638569   -3.312858    0.912662
H      -1.179863   -5.952913   -0.324538
H      -1.934922   -5.878846    1.276034
H      -2.903248   -5.584081   -0.185342
