19

C       0.051364    1.299538   -0.108626
O       0.149187   -0.110183    0.042495
C       0.649267   -0.599606    1.292161
C      -0.151261   -0.119246    2.493676
C       0.748785   -2.114884    1.112202
C       2.079499   -2.267609    0.365720
O       2.902883   -1.174875    0.822577
C       2.142696   -0.200624    1.375625
O       2.603780    0.818869    1.807727
H       0.999326    1.806354    0.104521
H      -0.222260    1.470549   -1.152288
H      -0.729555    1.726692    0.533222
H      -1.216105   -0.319387    2.342792
H       0.176701   -0.634953    3.400546
H      -0.004173    0.951035    2.654960
H       0.798551   -2.606973    2.087645
H      -0.101045   -2.511217    0.554396
H       2.610127   -3.194876    0.589132
H       1.953047   -2.174132   -0.716677
