18

C      -0.034397    1.538118    0.057650
C       1.510781    1.550375   -0.058062
C       2.219202    0.952467    1.225595
C       1.455918    1.018664    2.518307
C       0.519343    0.064789    2.521055
C       0.595779   -0.700947    1.230359
C      -0.018693   -0.007359   -0.053576
C       1.447232    0.081541   -0.576760
N       1.999206   -0.456670    0.725725
H      -0.488810    1.986844    0.945754
H      -0.484483    1.977460   -0.837696
H       1.996813    2.384828   -0.564172
H       3.277795    1.218381    1.293499
H       1.621383    1.762679    3.288205
H      -0.219298   -0.112001    3.293606
H       0.349486   -1.764025    1.302094
H      -0.845560   -0.510062   -0.555836
H       1.830197   -0.297204   -1.523691
