15

O       0.178088    0.074237    0.753208
C       0.135836    1.246766    0.443361
N       1.124742    1.899375   -0.208243
C       2.490627    1.446659   -0.497348
C       2.843278    2.923815   -0.738675
C       4.085425    3.657990   -0.522742
O       3.578724    3.387218   -1.842787
C       1.382799    3.324664   -0.458743
H      -0.728818    1.908696    0.655548
H       2.979930    0.953662    0.348684
H       2.571948    0.812230   -1.386079
H       4.052425    4.702730   -0.217233
H       4.992392    3.119308   -0.252932
H       0.862151    3.731930   -1.332688
H       1.220033    3.978616    0.405177
