25

C       0.256590    1.563448    0.045560
C       0.112092    0.039051    0.006205
C       0.592006   -0.566439   -1.318635
C       0.581734   -2.105215   -1.382403
C      -0.835976   -2.681274   -1.251064
C       1.272164   -2.579334   -2.678976
C       1.544871   -4.063533   -2.726903
C       2.789437   -4.612060   -3.280096
O       2.587397   -4.543232   -1.868017
H       1.301572    1.866187   -0.085105
H      -0.325223    2.037059   -0.753273
H      -0.092234    1.973822    0.998418
H       0.683494   -0.404555    0.832539
H      -0.936657   -0.225757    0.184186
H      -0.017860   -0.166871   -2.142835
H       1.616613   -0.217429   -1.507388
H       1.185520   -2.480708   -0.544386
H      -0.833897   -3.774802   -1.281407
H      -1.303829   -2.388669   -0.307274
H      -1.478709   -2.325451   -2.066085
H       0.655660   -2.303499   -3.546698
H       2.228155   -2.053736   -2.788556
H       0.669179   -4.713904   -2.746588
H       2.803143   -5.615724   -3.703670
H       3.542678   -3.932567   -3.677951
