17

O       0.128764    1.396305    1.106125
C       0.317139    0.179915    0.443231
C      -0.508884   -0.957980    0.993630
O      -1.270866   -0.703520    2.125165
C      -0.884215   -0.323279   -0.343008
N      -1.978642    0.610360   -0.362404
C      -2.740399    0.756138   -1.599831
C      -3.338528    0.076677   -0.418057
H      -0.694016    1.758178    0.727764
H       1.329523    0.030563    0.080735
H      -0.111352   -1.968915    0.961438
H      -1.006052    0.183312    2.415829
H      -0.712821   -0.912667   -1.243272
H      -3.030307    1.770319   -1.858878
H      -2.449563    0.135917   -2.445113
H      -3.447272   -1.003605   -0.459011
H      -4.068498    0.588643    0.201313
