18

C      -0.024223    1.559616    0.006174
C       0.022273    0.050332    0.046104
C      -1.300846   -0.754760    0.232395
C      -0.637898   -1.550323    1.403290
O      -0.520072   -2.945159    1.285096
C       0.703111   -0.802072    1.181831
C       1.558644   -1.412588    0.049847
O       2.406161   -2.255465   -0.041168
N       0.961572   -0.586652   -0.888395
H       0.984291    1.980854    0.052197
H      -0.497130    1.911472   -0.918553
H      -0.606987    1.953798    0.844587
H      -2.158865   -0.151151    0.539226
H      -1.577445   -1.366106   -0.629592
H      -1.078895   -1.267264    2.368843
H      -1.388447   -3.337132    1.422732
H       1.221230   -0.389511    2.045520
H       0.881287   -0.726008   -1.887700
