17

O       0.054406    1.332608   -0.229662
C       0.016607   -0.040808   -0.048043
C      -0.382944   -0.846543   -1.234713
C      -1.320634   -0.827801   -0.014304
C      -1.075775   -1.930914    0.968264
C       0.149716   -1.871660    1.493994
C       0.936537   -0.682579    0.992327
C      -2.587489   -0.173391   -0.093489
C      -3.651314    0.388814   -0.132301
H      -0.370217    1.751406    0.528104
H      -0.713951   -0.270201   -2.090982
H       0.124363   -1.780061   -1.454553
H      -1.828975   -2.678000    1.187779
H       0.560521   -2.585745    2.197980
H       1.902921   -0.965018    0.557484
H       1.157673    0.030017    1.799768
H      -4.593360    0.875705   -0.180331
