18

C       0.173653    1.528619    0.138504
N      -0.244771    0.170471   -0.192743
C       0.534339   -0.471152   -1.200481
C       1.882645   -1.279425   -0.986770
C       1.067859   -2.405763   -0.304538
C       0.284433   -1.970589   -1.578479
N       1.624563   -2.009500   -2.293561
C      -0.912843   -2.556199   -2.133278
N      -1.885625   -3.004194   -2.568444
H       1.199669    1.607440    0.534751
H       0.113214    2.155103   -0.757989
H      -0.512275    1.946087    0.880318
H      -0.337768   -0.392464    0.643327
H       0.578442    0.181762   -2.080576
H       2.878428   -0.921884   -0.728238
H       1.506759   -3.401091   -0.363090
H       0.611869   -2.206415    0.665221
H       1.607163   -1.336603   -3.068411
