20

C      -0.033051    1.461531    0.078667
C       1.494666    1.399874   -0.063525
O       2.077163    1.163963    1.219499
C       1.792936   -0.170682    1.676607
C       2.690808   -1.133382    0.895124
C       2.236292   -1.085630   -0.586524
C       1.235133    0.045713   -0.774395
N      -0.058411   -0.048724    0.032273
C       0.315136   -0.521384    1.389546
H      -0.429666    1.907976    0.994326
H      -0.548524    1.870454   -0.796215
H       2.060804    2.205341   -0.541173
H       2.021721   -0.179592    2.745519
H       3.728911   -0.808005    1.004486
H       2.615794   -2.145562    1.305759
H       3.085180   -0.934457   -1.260682
H       1.761864   -2.025322   -0.890185
H       0.970758    0.184177   -1.826475
H       0.175824   -1.607291    1.454213
H      -0.364667   -0.061470    2.113290
