17

C       0.078488    1.609658   -0.199029
C       0.027389    0.099299    0.011386
N       0.642587   -0.625932   -1.111456
C       1.436934   -1.470165   -0.610346
O       1.597649   -1.538666    0.737123
C       0.784858   -0.463012    1.289270
C       1.721272    0.503822    2.016007
C      -0.164819   -1.060915    2.238281
N      -0.934072   -1.491099    2.985365
H       1.104477    1.970935   -0.304369
H      -0.457043    1.852373   -1.119768
H      -0.401912    2.142352    0.626828
H      -1.023531   -0.204613    0.067791
H       2.039809   -2.182593   -1.161994
H       2.443281    0.920476    1.310674
H       1.158846    1.319917    2.475246
H       2.264138   -0.029718    2.799059
