16

N      -0.000600   -3.778454   -0.128707
C       0.004439   -2.616968   -0.088277
C       0.010273   -1.253494   -0.039868
C       0.013707   -0.044219    0.000756
C       0.030329    1.400990    0.069487
C      -0.212029    2.091946    1.470704
C       1.139899    2.798111    1.332164
C       2.239697    1.785593    1.191238
C       1.399905    2.112699   -0.009335
H      -0.667255    1.804775   -0.669962
H      -1.072014    2.762227    1.433222
H      -0.319899    1.417862    2.324469
H       1.334115    3.825205    1.613246
H       3.245848    2.190369    1.164067
H       2.163266    0.812860    1.671107
H       1.820103    2.508607   -0.924990
