17

O      -0.016069    0.191544    1.026782
C      -0.036180    1.152843    0.311350
C      -1.346981    1.902818    0.003308
O      -1.798906    1.703538   -1.319080
C      -1.306590    2.554864   -2.341039
C       0.053476    2.135843   -2.907695
O       1.207574    2.727039   -2.314273
C       1.245755    2.816588   -0.934629
O       1.123031    1.554490   -0.280788
H      -2.088966    1.442598    0.657366
H      -1.286406    2.971708    0.253590
H      -2.041826    2.469277   -3.147628
H      -1.294847    3.607033   -2.017467
H       0.117639    1.041137   -2.855072
H       0.112162    2.430051   -3.959531
H       2.242820    3.185189   -0.685651
H       0.494278    3.510888   -0.540308
