18

C      -0.190770    1.576194    0.025482
C       0.033991    0.050716   -0.001465
C      -1.319880   -0.639694    0.040158
O      -1.786729   -1.167529    1.016183
C       0.828185   -0.441410   -1.231952
O       0.284154    0.033021   -2.468189
C       2.325275   -0.120411   -1.178928
O       2.978448   -0.608640   -2.329251
H       0.753936    2.124880   -0.024383
H      -0.825264    1.904668   -0.805699
H      -0.695370    1.864993    0.951150
H       0.570939   -0.250886    0.904729
H      -1.873522   -0.612165   -0.925207
H       0.733869   -1.531711   -1.304389
H       0.314332    0.996969   -2.456641
H       2.470495    0.969177   -1.068093
H       2.783872   -0.601027   -0.307982
H       2.382427   -0.423176   -3.066575
