16

O      -0.095498    1.171826    1.187173
C      -0.034418    0.161878    0.213448
C       0.965095   -0.965237    0.583311
C       0.127481   -1.959715    1.358671
O      -0.746973   -1.329361    2.319725
C      -1.292029   -1.741046    1.059514
C      -1.401833   -0.599585    0.051136
C      -2.576393    0.247971    0.228030
N      -3.527019    0.891212    0.358428
H      -0.339597    0.741384    2.018173
H       0.236074    0.658978   -0.719968
H       1.373048   -1.452172   -0.310527
H       1.799010   -0.554724    1.158301
H       0.518462   -2.927066    1.659971
H      -2.053223   -2.513843    1.104451
H      -1.452884   -1.044608   -0.951593
