15

N       0.079382    1.312270    0.124491
C      -0.033833    0.049281    0.100280
N      -1.234420   -0.635364   -0.008651
C      -1.263208   -2.088146   -0.154804
C      -2.751572   -2.416851    0.059407
N      -3.373844   -1.173957   -0.362896
C      -2.526048   -0.085513   -0.180112
O      -2.842919    1.073579   -0.184068
H       1.061559    1.562310    0.226880
H       0.801704   -0.660462    0.174652
H      -0.937654   -2.389207   -1.159260
H      -0.619214   -2.578665    0.579504
H      -3.073013   -3.265568   -0.549641
H      -2.955003   -2.650033    1.114615
H      -4.349676   -0.996544   -0.183245
