20

C       0.394774    1.388117   -0.210192
C      -0.103845    0.033686    0.312743
C       0.053037   -1.110728   -0.727829
C       1.429930   -1.766054   -0.455207
C       1.705698   -1.495207    1.014072
C       0.756903   -0.415793    1.490715
N       0.645626   -1.783573    1.948131
C      -0.382576   -2.690458    1.859040
O      -0.278502   -3.820848    1.441570
H       1.436033    1.325751   -0.545524
H      -0.210855    1.721796   -1.058076
H       0.340715    2.160235    0.564580
H      -1.153562    0.142615    0.609174
H      -0.740505   -1.851961   -0.606531
H      -0.025525   -0.733088   -1.750757
H       1.427979   -2.833911   -0.687163
H       2.222989   -1.296885   -1.047997
H       2.716903   -1.584829    1.400727
H       1.045810    0.315364    2.242104
H      -1.320771   -2.288539    2.291054
