16

C       0.380011    1.527373    0.006934
C       0.122169    0.033035    0.043943
N       0.980589   -0.789374   -0.868937
C       1.308745   -1.739722    0.230912
C       0.630598   -0.793655    1.247595
O       1.943512   -0.392393    1.743306
C       2.590285   -1.317022    0.925858
N       3.797148   -1.637227    0.857214
H       1.429548    1.737647    0.224091
H       0.145585    1.929768   -0.983430
H      -0.243262    2.047252    0.742612
H      -0.948030   -0.177927   -0.094327
H       0.473713   -1.220975   -1.632031
H       1.105315   -2.798588    0.079770
H      -0.038985   -1.059214    2.063808
H       4.368583   -1.091497    1.504866
