19

C       0.454266    1.522571   -0.407907
C       0.168279    0.095040   -0.025739
O       1.289972   -0.785546    0.160425
C       0.453152   -0.508754    1.286136
C       1.057891    0.248062    2.464082
O       0.024326    0.678194    3.306662
C       2.018452   -0.666046    3.243160
C       3.303761   -1.087353    2.581336
O       1.705844   -0.998437    4.367572
H       1.272342    1.949506    0.175439
H       0.729824    1.578600   -1.465973
H      -0.438918    2.137869   -0.258443
H      -0.642275   -0.367448   -0.592153
H      -0.173040   -1.344224    1.605717
H       1.637994    1.103627    2.089720
H       0.164979    0.191580    4.137510
H       3.973042   -0.219976    2.525172
H       3.786375   -1.871583    3.165774
H       3.124850   -1.411728    1.552902
