16

N      -0.047899    1.266963   -0.461775
C      -0.014149    0.070854   -0.060221
O       1.126895   -0.625156    0.249488
C       0.796738   -1.928265    0.774941
O       0.800590   -1.887984    2.169227
C      -0.441698   -1.299052    2.588007
C      -1.413841   -1.530586    1.435583
C      -0.651884   -2.208322    0.340020
C      -1.191742   -0.828117    0.094133
H       0.896680    1.651712   -0.517149
H       1.567272   -2.621239    0.441567
H      -0.764633   -1.810270    3.499204
H      -0.296856   -0.235942    2.814873
H      -2.434821   -1.810298    1.664051
H      -0.939070   -3.109943   -0.182652
H      -2.056687   -0.626669   -0.522679
