19

C      -0.092298    1.607874    0.006259
C       0.076150    0.084857    0.014270
C       0.754967   -0.488111   -1.241860
C       2.167418    0.051014   -1.471090
C       0.606446   -2.025845   -1.396818
O      -0.236079   -1.838136   -2.577093
C      -0.125286   -0.467693   -2.486076
N      -0.606006    0.437994   -3.209660
H       0.872163    2.123173    0.041670
H      -0.617184    1.933629   -0.895869
H      -0.669004    1.931352    0.878047
H       0.661310   -0.225233    0.890666
H      -0.909488   -0.385252    0.119864
H       2.795749   -0.124164   -0.590734
H       2.640399   -0.433873   -2.330496
H       2.146256    1.125091   -1.669785
H       1.516026   -2.575951   -1.651858
H       0.057067   -2.541372   -0.604659
H      -1.163261    0.050551   -3.973351
