19

O      -0.037780    1.347190   -0.324201
C      -0.040472   -0.048619   -0.094685
C      -1.441492   -0.536874    0.082889
C      -2.557629    0.193068    0.012408
C      -3.787390   -0.640652    0.226783
O      -4.502744   -0.975764   -0.997609
C      -3.938237   -2.302987   -1.000896
C      -3.249504   -2.088262    0.365402
C      -1.713814   -1.998451    0.389516
H       0.871506    1.627128   -0.460741
H       0.424031   -0.597676   -0.933645
H       0.547983   -0.312242    0.803010
H      -2.584099    1.255269   -0.192579
H      -4.481215   -0.239821    0.974421
H      -4.718477   -3.072873   -1.031824
H      -3.250298   -2.460909   -1.843326
H      -3.664798   -2.690684    1.173219
H      -1.245803   -2.668772   -0.344923
H      -1.299654   -2.283057    1.366328
