16

C       0.071418    1.506996    0.045241
C       0.016131   -0.010952    0.016173
O       1.033757   -0.692781    0.012556
C      -1.290787   -0.639994   -0.005944
C      -2.596539   -0.172246   -0.008954
C      -3.465190   -1.286675   -0.035273
C      -2.652061   -2.413635   -0.047291
O      -2.927814   -3.733694   -0.071973
N      -1.360744   -2.026019   -0.029814
H       1.115112    1.822631    0.042739
H      -0.442049    1.931993   -0.823464
H      -0.425157    1.895253    0.940747
H      -2.891903    0.865744    0.006207
H      -4.544211   -1.281895   -0.044480
H      -3.883152   -3.849054   -0.082103
H      -0.540766   -2.611993   -0.032870
