19

C      -0.835745    1.380963    0.214190
C      -0.181288    0.030504    0.008292
O       0.900491    0.082104   -0.966319
C       1.854263   -0.463842   -0.040351
C       3.019864    0.469710    0.212876
O       3.951237    0.186801    0.922638
C       0.791328   -0.498840    1.066968
C       0.936921   -0.120353    2.510255
C       0.582845   -1.537426    2.121205
H      -0.106951    2.123312    0.552136
H      -1.277957    1.729681   -0.724177
H      -1.635745    1.310442    0.959309
H      -0.928081   -0.713885   -0.301351
H       2.233198   -1.448002   -0.348329
H       2.922503    1.459768   -0.287467
H       1.938892    0.069505    2.880257
H       0.165505    0.498909    2.956261
H      -0.432427   -1.879729    2.297596
H       1.341536   -2.304547    2.237301
