23

C       0.233137    1.666806   -0.390428
C       0.345985    0.144375   -0.279413
C       0.835713   -0.320031    1.100063
C       0.950705   -1.829044    1.183585
C       2.219436   -2.586696    0.954224
O       3.348816   -1.886779    1.490194
C       2.856916   -2.112568    2.848066
C       2.928919   -0.908123    3.765386
C       1.540966   -2.674187    2.307301
H       1.202333    2.148183   -0.219362
H      -0.119446    1.970822   -1.381032
H      -0.468697    2.066788    0.350087
H      -0.630036   -0.312363   -0.492220
H       1.032417   -0.232561   -1.048127
H       1.814752    0.125352    1.299295
H       0.149218    0.051035    1.873080
H       0.096158   -2.354710    0.755298
H       2.407757   -3.320304    0.178120
H       3.444571   -2.933782    3.282661
H       3.963422   -0.557092    3.841782
H       2.306523   -0.082087    3.419622
H       2.596931   -1.193906    4.769615
H       0.990866   -3.490123    2.757777
