20

C       0.119717    1.529403   -0.020252
C       1.359923    0.656130   -0.052000
C       0.010143    0.024011    0.031324
C      -0.468916   -0.681230    1.309664
N      -1.742604   -1.400617    1.103554
C      -2.540829   -0.625930    0.075593
C      -1.663741   -1.280360   -1.016098
C      -1.497056   -2.417112    0.010323
O      -0.421630   -0.600551   -1.165041
H      -0.090412    2.101008    0.878630
H      -0.170333    2.007270   -0.949216
H       1.881780    0.565169   -0.998072
H       1.998258    0.622432    0.825221
H       0.269137   -1.413334    1.657913
H      -0.598237    0.058716    2.107807
H      -3.572127   -0.988276    0.060665
H      -2.530187    0.460237    0.181170
H      -2.045675   -1.470036   -2.022485
H      -0.527614   -2.921095    0.044601
H      -2.307235   -3.152367   -0.001546
