19

C       0.057070    1.473197    0.024589
C       0.004746   -0.017674   -0.034381
C      -0.024666   -0.814622   -1.109255
C       0.011812   -2.265680   -0.743353
C       1.260829   -2.706999   -0.007895
O       2.433733   -1.929992    0.012474
C       0.044556   -2.294733    0.781071
C       0.017276   -0.838738    1.261116
O       1.087583   -0.493140    2.130145
H       0.906338    1.797427    0.636044
H       0.139799    1.923301   -0.968106
H      -0.841797    1.874878    0.510413
H      -0.035569   -0.473794   -2.139730
H      -0.535091   -2.991676   -1.334425
H       1.497676   -3.766362   -0.029373
H       2.295594   -1.185895   -0.588363
H      -0.483272   -3.046306    1.355439
H      -0.894846   -0.635458    1.837477
H       1.885537   -0.852925    1.716822
