16

O      -0.083161   -0.072792   -0.079604
C      -0.013311    1.130455    0.019472
N      -1.094380    1.982428    0.199821
C      -0.845875    3.412687   -0.000298
C       0.670276    3.444039   -0.022303
C       1.492097    2.968325    1.119124
C       1.195012    2.027621   -0.041351
C       1.954165    2.485159   -1.292288
O       1.443726    3.850874   -1.155207
H      -2.022717    1.596014    0.279800
H      -1.236600    3.773406   -0.960007
H      -1.290852    4.011244    0.802318
H       2.504441    3.343135    1.227789
H       0.972505    2.751214    2.045723
H       3.047827    2.452074   -1.255785
H       1.595936    2.024747   -2.218033
