19

C      -0.563719    1.384163    0.067260
C       0.070428    0.002036    0.010594
C       1.390316   -0.191321   -0.806128
C       2.077665   -0.783175    0.447375
C       2.908302   -2.032868    0.387203
O       2.746044    0.291940    1.207690
C       1.640078    0.487928    2.003138
O       1.526918    1.259917    2.901759
C       0.790745   -0.553525    1.289462
H       0.153001    2.142940    0.396557
H      -0.933040    1.676903   -0.921394
H      -1.409606    1.404018    0.762119
H      -0.674298   -0.732180   -0.309158
H       1.298983   -0.890702   -1.640412
H       1.866644    0.725517   -1.160516
H       3.820881   -1.857938   -0.192604
H       3.197413   -2.358670    1.390586
H       2.349051   -2.840080   -0.095588
H       0.283074   -1.296481    1.902225
