17

C      -0.068655    1.545283   -0.029293
C       0.061047    0.039318    0.013632
C       1.388685   -0.648950   -0.171780
O       2.559839    0.101596   -0.255197
C       0.731191   -0.672547    1.203301
C       1.343496    0.111701    2.354997
C       0.133549   -1.926937    1.588575
N      -0.351159   -2.931316    1.898233
H       0.867398    2.042257    0.232128
H      -0.347797    1.868312   -1.038066
H      -0.846671    1.896441    0.655427
H      -0.789635   -0.498312   -0.395015
H       1.405196   -1.589446   -0.720199
H       2.610172    0.483484   -1.138178
H       1.937722    0.944428    1.981055
H       0.565465    0.495608    3.021065
H       2.003265   -0.534272    2.940502
