17

O       0.080181    1.335545   -0.346170
C       0.006500   -0.028461   -0.055334
C       0.178119   -0.396073    1.448125
C      -1.382872   -0.570988    1.588823
C      -1.434463   -0.614936    0.013156
C      -1.817818   -1.843202    2.271382
O      -2.612224   -1.917381    3.174266
C      -2.057574    0.656254    2.159699
O      -1.849478    1.779915    1.755047
H      -0.523017    1.794322    0.261979
H       0.688554   -0.530569   -0.745258
H       0.695111   -1.348457    1.601207
H       0.630548    0.369437    2.081140
H      -2.219031   -0.017320   -0.454510
H      -1.496343   -1.645887   -0.348863
H      -1.327848   -2.757043    1.860993
H      -2.767855    0.472238    2.985232
