21

C       0.690531    1.357627   -0.219340
C       0.052381   -0.022462   -0.043884
O      -1.359934    0.150668    0.145213
C       0.359886   -0.994437   -1.220998
C       1.418340   -1.968817   -0.722747
C       2.677908   -1.412859   -0.108970
C       1.531919   -1.830211    0.779042
C       0.540900   -0.784176    1.235299
O       1.099781    0.043754    2.243221
H       1.774543    1.310097   -0.336801
H       0.283247    1.838680   -1.117573
H       0.474255    1.993159    0.641825
H      -1.689253    0.702317   -0.572447
H      -0.560858   -1.541131   -1.450008
H       0.661181   -0.461153   -2.130821
H       1.471108   -2.943546   -1.195085
H       3.545299   -2.064227   -0.104403
H       2.925615   -0.364312   -0.218637
H       1.671361   -2.692810    1.420321
H      -0.347934   -1.300114    1.626007
H       0.378868    0.543980    2.639580
