17

O       0.106852    1.398591    0.022117
C       0.020181   -0.008338    0.054119
C      -1.447711   -0.512740    0.035028
N      -1.492372   -1.980721    0.094902
C      -2.539794   -2.407439    1.039980
C      -2.817200   -1.152915    1.821209
C      -2.225878   -0.100050    1.269908
C      -2.090492    0.033731   -1.187329
N      -2.543816    0.448889   -2.167842
H      -0.166348    1.698959   -0.852322
H       0.570169   -0.483128   -0.771137
H       0.464184   -0.341308    0.995255
H      -1.580856   -2.406326   -0.817769
H      -3.453958   -2.774333    0.544941
H      -2.174234   -3.224043    1.677085
H      -3.428172   -1.143915    2.715108
H      -2.246966    0.928955    1.599382
