15

C       0.390134    1.504435   -0.109622
C       0.075123    0.038130    0.080156
O       0.837835   -0.820182   -0.821385
C       1.332558   -1.621272    0.258150
C       2.792146   -1.693121    0.328604
N       3.940342   -1.766725    0.436702
C       0.655474   -0.690496    1.318369
O       1.501637    0.131230    2.065696
H       1.446730    1.703730    0.074116
H       0.142688    1.797745   -1.134167
H      -0.206067    2.113493    0.577045
H      -0.997365   -0.153099   -0.050367
H       0.927861   -2.641578    0.230311
H      -0.080229   -1.208683    1.944875
H       2.013112   -0.408649    2.678388
