15

C       0.062603    1.481380   -0.017649
N       0.006090    0.023422    0.001113
C      -0.047876   -0.664010    1.207581
N      -0.050096   -0.053928    2.322731
C       0.006801   -0.661176   -1.193488
N      -0.041575   -1.969572   -1.299920
O      -0.020746   -2.224098   -2.652396
N       0.040036   -1.078416   -3.375768
C       0.058171   -0.105151   -2.510384
H       0.980055    1.829330   -0.503942
H      -0.803177    1.898040   -0.543118
H       0.052766    1.818296    1.017200
H      -0.085915   -1.744766    1.060871
H      -0.093155   -0.721516    3.088784
H       0.105053    0.923193   -2.828773
