25

C       0.021773    1.600196   -0.013547
C       0.024022    0.069708   -0.051457
C       0.790570   -0.480251   -1.263644
C       0.842928   -2.006503   -1.215440
O       1.411542   -2.481481   -0.007681
C       0.752657   -2.066357    1.200037
C      -0.616171   -2.757173    1.337418
C       1.682019   -2.544547    2.317490
C       0.630878   -0.526261    1.229916
H       1.043045    1.991860    0.062131
H      -0.428506    2.018709   -0.920181
H      -0.542785    1.976307    0.846631
H      -1.019904   -0.265610   -0.134196
H       0.323914   -0.154291   -2.201361
H       1.815829   -0.086544   -1.255498
H      -0.167639   -2.419679   -1.366918
H       1.477361   -2.404442   -2.013804
H      -0.495750   -3.839158    1.230779
H      -1.047021   -2.553529    2.322795
H      -1.337875   -2.421200    0.588820
H       2.680260   -2.118509    2.184496
H       1.299635   -2.243385    3.297630
H       1.771143   -3.634694    2.298866
H       1.637994   -0.108833    1.362405
H       0.045459   -0.223202    2.106657
