22

C      -0.408279    1.337403    0.148007
N      -0.052504   -0.067115    0.283092
C       1.246148   -0.495188   -0.230145
C       0.973736   -0.498232    1.239582
C       1.700528    0.499739    2.124385
C       0.626440   -1.822285    1.909837
C      -0.479972   -1.681091    2.972589
C      -0.952364   -3.026024    3.469039
O      -0.957047   -3.379803    4.620133
H       0.444053    2.033403    0.170031
H      -0.924474    1.474556   -0.807702
H      -1.101207    1.618761    0.947574
H       1.257688   -1.422126   -0.799446
H       1.919623    0.274195   -0.608111
H       1.998543    1.398053    1.580447
H       1.082455    0.810724    2.973572
H       2.610441    0.044700    2.529770
H       0.285561   -2.521723    1.138600
H       1.527649   -2.254793    2.362309
H      -0.160873   -1.088463    3.834038
H      -1.335456   -1.181206    2.495971
H      -1.309309   -3.708486    2.660724
