16

C       0.241514    1.334532   -0.777369
C       0.073152   -0.010998   -0.245844
C      -0.052440   -1.121700    0.201047
C      -0.205035   -2.468702    0.742812
C      -1.466660   -3.156644    0.300640
C      -2.477788   -2.718972   -0.519855
N      -3.340928   -3.762110   -0.552554
N      -2.904540   -4.789781    0.196777
N      -1.767980   -4.422542    0.714152
H       1.174972    1.784940   -0.422349
H       0.272783    1.331447   -1.872533
H      -0.579302    1.992027   -0.470233
H       0.655396   -3.087535    0.455875
H      -0.185272   -2.435564    1.840144
H      -2.637929   -1.797500   -1.051364
H      -4.216064   -3.847233   -1.044020
