22

C      -0.020899    1.597419   -0.032127
C       0.041991    0.062575   -0.018121
C       0.713867   -0.483700   -1.280585
O      -0.038782   -0.052360   -2.404901
C       0.717394   -0.513050    1.242776
O       2.085126   -0.120649    1.360386
C      -0.060868   -0.196009    2.518372
C       0.563364   -0.393089    3.845105
N       0.278813    0.969945    3.348473
H       0.979819    2.050737   -0.066974
H      -0.543687    1.935914   -0.928318
H      -0.536661    1.986308    0.849454
H      -0.988739   -0.316103   -0.020231
H       1.753454   -0.124916   -1.332595
H       0.751825   -1.583657   -1.227730
H       0.422921   -0.329286   -3.201270
H       0.746420   -1.606518    1.139794
H       2.162068    0.787925    1.051713
H      -1.132726   -0.364123    2.426153
H      -0.038762   -0.709537    4.691770
H       1.600283   -0.715626    3.861910
H       1.158083    1.356902    3.010550
