15

O      -0.162540    1.338827   -0.033930
N       0.031096   -0.052583   -0.049837
C      -1.078718   -0.656519   -0.103057
C      -2.543401   -0.308178    0.048697
N      -2.884249   -1.770133    0.230854
C      -2.480272   -2.413148   -1.013402
C      -1.383358   -2.114055   -0.037222
C      -0.637558   -3.116097    0.642628
C       0.012891   -3.957839    1.202818
H       0.739550    1.668872    0.038948
H      -2.745083    0.256675    0.961804
H      -3.054197    0.164502   -0.795608
H      -2.779170   -3.454706   -1.078160
H      -2.527956   -1.857735   -1.948584
H       0.585552   -4.696778    1.706773
