15

O       0.011046    1.407848   -0.047006
C      -0.007299   -0.004152   -0.096098
C      -1.421768   -0.482255    0.012221
C      -2.487915    0.329581    0.135958
C      -3.795137   -0.262648    0.230674
N      -4.046383   -1.525013    0.207651
O      -2.944977   -2.371047    0.079561
C      -1.638789   -1.923801   -0.020293
N      -0.680444   -2.751475   -0.135020
H       0.924183    1.698314   -0.117765
H       0.421202   -0.398555   -1.030636
H       0.576346   -0.461363    0.718056
H      -2.368966    1.404743    0.164006
H      -4.682415    0.355366    0.331577
H      -1.025382   -3.712307   -0.138908
