21

C       0.000532   -1.155168   -0.075379
C       0.050970    0.027834    0.130584
C       0.138023    1.463626    0.366126
C       1.417407    2.090606   -0.220718
C       1.489693    3.588204    0.043717
O       2.683139    4.082596   -0.535834
C       2.859358    5.451829   -0.354728
C       3.478621    5.953108    0.926450
C       4.267228    5.947284   -0.369730
H      -0.053724   -2.200556   -0.252242
H      -0.744310    1.956089   -0.064167
H       0.094640    1.657694    1.446268
H       2.298297    1.605667    0.211740
H       1.454948    1.912933   -1.300060
H       0.613794    4.098777   -0.392586
H       1.476072    3.794230    1.126438
H       2.088097    6.067836   -0.820279
H       3.145816    6.901125    1.334677
H       3.746574    5.206342    1.665647
H       5.039544    5.193830   -0.472918
H       4.480197    6.890034   -0.860584
