16

C      -0.178269    1.212178   -0.577269
C       0.119268   -0.056545    0.160388
N       1.000980   -0.176527    1.044770
O      -0.761109   -1.056016   -0.325257
C      -0.746453   -2.338693    0.102968
O      -0.026557   -2.804427    0.949530
C      -1.784912   -3.160237   -0.605157
C      -3.121162   -2.609837   -0.909290
O      -2.151534   -2.788715   -1.928842
H       0.491245    1.995783   -0.225547
H      -0.047629    1.065151   -1.653801
H      -1.218092    1.513428   -0.415163
H       1.041376   -1.122827    1.418867
H      -1.669649   -4.225103   -0.418940
H      -3.969160   -3.291911   -0.933294
H      -3.339295   -1.577032   -0.648092
