21

O       0.144897    1.308669   -0.325247
C       0.098650   -0.084423   -0.110902
C      -1.338729   -0.555450    0.125121
O      -2.165728   -0.063238   -0.939658
C      -1.456358   -2.069126    0.291765
C      -2.885334   -2.538153    0.598506
C      -2.996438   -4.041963    0.631898
C      -4.165223   -4.758392    0.108545
O      -2.946566   -4.706913   -0.636218
H      -0.623769    1.504254   -0.877480
H       0.521812   -0.640793   -0.968480
H       0.722882   -0.307470    0.761650
H      -1.723846   -0.046655    1.017528
H      -1.955330   -0.575046   -1.730695
H      -1.108466   -2.561139   -0.627475
H      -0.774668   -2.391653    1.089747
H      -3.210801   -2.131696    1.565369
H      -3.566822   -2.141108   -0.160387
H      -2.407369   -4.539911    1.405588
H      -4.429041   -5.736777    0.507946
H      -4.994412   -4.191463   -0.313243
