25

C      -0.209982    1.584368   -0.150201
C      -0.026638    0.065326   -0.059956
C       0.847172   -0.535433   -1.179942
C       2.316692   -0.100516   -1.064685
C       0.703978   -2.068116   -1.264017
C       1.178961   -2.819608   -0.018689
C      -0.672884   -2.575656   -1.773335
O      -0.063096   -3.285368   -2.868423
C       1.225549   -2.710365   -2.578740
H       0.739867    2.118395   -0.049634
H      -0.652794    1.872410   -1.110292
H      -0.873192    1.945300    0.642137
H       0.404373   -0.188915    0.916632
H      -1.016559   -0.408580   -0.087279
H       0.462753   -0.143494   -2.133694
H       2.742289   -0.378036   -0.094352
H       2.932260   -0.562582   -1.843849
H       2.419642    0.982873   -1.171002
H       0.617411   -2.521469    0.872340
H       1.039930   -3.897211   -0.152688
H       2.241696   -2.646655    0.178887
H      -1.226477   -3.247051   -1.105329
H      -1.351367   -1.786425   -2.126993
H       1.533644   -1.991399   -3.351076
H       2.004255   -3.476225   -2.475413
