21

C       0.008496    1.539529   -0.086403
C       0.018565    0.024217    0.038926
C       0.347421   -0.755398   -1.281890
C      -1.002622   -1.521124   -1.202818
C      -0.952254   -2.825653   -0.372489
C      -1.008581   -1.985853    0.935654
O       0.270388   -1.802158    1.537019
C       0.756757   -0.489738    1.274995
C      -1.347605   -0.718835    0.101899
H       1.022708    1.929834   -0.233880
H      -0.594345    1.861984   -0.941478
H      -0.404204    2.011536    0.812498
H       0.406884   -0.087819   -2.145748
H       1.248983   -1.375457   -1.262103
H      -1.621647   -1.514704   -2.099933
H      -1.862203   -3.419237   -0.503514
H      -0.079330   -3.474711   -0.483821
H      -1.721468   -2.318055    1.696157
H       1.842286   -0.550052    1.131910
H       0.563638    0.169454    2.137564
H      -2.270160   -0.170894    0.291301
