14

N       0.043923    1.318144    0.151487
C      -0.053996   -0.046316    0.050745
N      -1.146613   -0.760120    0.026028
C      -0.631534   -2.043201    0.012593
C       0.735001   -2.047413    0.017978
O       1.137359   -0.723411    0.044674
C       1.217282   -3.373229   -0.020450
C       0.068486   -4.150268   -0.044124
N      -1.059778   -3.338068   -0.025631
H       0.872870    1.710571   -0.271058
H      -0.806930    1.792413   -0.112657
H       2.229937   -3.740979   -0.026188
H      -0.034423   -5.222484   -0.066703
H      -2.011044   -3.659820   -0.033684
