23

C       0.097819   -1.277848    0.099321
C       0.034036   -0.078372    0.038354
C      -0.022473    1.382561   -0.009339
C      -0.803773    1.930179    1.216722
C      -1.517013    3.279782    1.014938
C      -0.757174    4.366860    0.228064
C       0.764073    4.425318    0.448397
C       1.548142    3.437083   -0.431165
C       1.420450    1.948219   -0.084244
H       0.145748   -2.337548    0.141941
H      -0.559359    1.664791   -0.926889
H      -1.552435    1.192000    1.518900
H      -0.098124    1.997787    2.053306
H      -2.477951    3.105644    0.515307
H      -1.767975    3.665779    2.010607
H      -0.937405    4.235462   -0.846897
H      -1.202035    5.336099    0.480726
H       1.113066    5.436192    0.206903
H       1.005823    4.269268    1.508413
H       1.238884    3.590570   -1.474666
H       2.614269    3.692485   -0.394710
H       1.902007    1.749024    0.881740
H       1.980829    1.370564   -0.827107
