18

C      -0.163213    1.499526    0.054216
C       0.059431   -0.011624   -0.023583
C       0.594548   -0.414751   -1.407495
N       0.622841   -1.829036   -1.717039
C       0.839898   -2.729548   -0.854881
N       1.093439   -2.689611    0.513955
C       1.321987   -1.653541    1.431056
O       1.805579   -1.911789    2.517837
N       0.983781   -0.391080    1.042098
H       0.775748    2.039003   -0.110920
H      -0.879913    1.819152   -0.705967
H      -0.559886    1.790097    1.032439
H      -0.906294   -0.517703    0.123088
H      -0.032683    0.066109   -2.167857
H       1.603306    0.004863   -1.526543
H       0.838283   -3.765359   -1.201485
H       1.320440   -3.577270    0.938281
H       1.122016    0.272270    1.789339
