23

C       0.098278    1.683399   -0.155038
C       0.077832    0.164653   -0.052785
C       0.977579   -0.776694   -0.889279
C       2.443174   -0.351902   -0.963978
C       2.934454    0.196535    0.404229
C       2.062633   -0.266047    1.606635
C       2.030204    0.769953    2.734871
C       0.671490   -0.676299    1.110484
O       0.869044   -1.771956    0.169471
H       1.097388    2.116556   -0.085811
H      -0.332119    2.000253   -1.111793
H      -0.513604    2.130525    0.636189
H      -0.952054   -0.181917   -0.186239
H       0.597436   -1.148286   -1.846097
H       3.017773   -1.237481   -1.255813
H       2.590488    0.396333   -1.752122
H       3.977654   -0.088666    0.572679
H       2.935574    1.290538    0.375174
H       2.490103   -1.193663    2.008057
H       1.572330    1.709939    2.408752
H       1.461190    0.401991    3.595800
H       3.043182    1.000697    3.081472
H       0.005630   -0.954397    1.934843
