17

O      -0.040369    0.004649   -0.001437
C       0.014547    1.203063   -0.004416
C      -1.205403    2.198429   -0.066693
C      -0.371861    3.454889   -0.033333
C      -0.233162    4.990838   -0.034081
C       1.237021    4.456712    0.037779
C       0.825580    3.278259    0.965714
C       1.260594    2.102953    0.050053
C       0.914195    3.269347   -0.913556
H      -1.781440    2.037085   -0.982891
H      -1.865197    2.045501    0.792699
H      -0.521641    5.514595   -0.950903
H      -0.606400    5.523126    0.846524
H       2.157682    5.038893    0.078431
H       0.738409    3.287361    2.053353
H       2.225706    1.601178    0.097938
H       0.929754    3.268120   -2.004610
