18

C       0.379968    1.525944   -0.028821
C      -0.068513    0.107084    0.078325
C      -1.488453   -0.462976   -0.087964
C      -1.098482   -1.637544    0.873433
C       0.306654   -0.993365    0.979578
O       0.836744   -0.932721   -0.345120
C      -1.850495   -1.606755    2.195242
N      -1.975957   -2.818190    2.810073
O      -2.265265   -0.576933    2.695059
H       1.419622    1.623719    0.294703
H       0.309939    1.878835   -1.064073
H      -0.246697    2.172653    0.592946
H      -2.251868    0.166765    0.371511
H      -1.767425   -0.739230   -1.107124
H      -1.080832   -2.637318    0.430948
H       1.008262   -1.045000    1.805144
H      -1.689120   -3.675945    2.373505
H      -2.457185   -2.858246    3.693712
