23

C       0.068320    1.369713    0.341296
C       0.119436   -0.137973    0.078718
C       0.643548   -0.520285   -1.331115
C       2.139556   -0.213141   -1.519607
C       2.635641   -0.440343   -2.951160
C       0.365348   -2.001752   -1.529679
O       1.059054   -2.872571   -1.043336
C      -0.853123   -2.406064   -2.346196
O      -1.040265   -3.787778   -2.342056
H       1.060513    1.828346    0.304536
H      -0.563425    1.878957   -0.394892
H      -0.349154    1.571010    1.332633
H       0.749443   -0.635251    0.825240
H      -0.888882   -0.551249    0.208209
H       0.057863    0.040004   -2.074060
H       2.328810    0.826075   -1.232546
H       2.704832   -0.845740   -0.826804
H       2.518474   -1.485848   -3.254398
H       2.087506    0.182046   -3.667606
H       3.696996   -0.190574   -3.040740
H      -1.736615   -1.879771   -1.948184
H      -0.704046   -2.015829   -3.369205
H      -0.280202   -4.137527   -1.848245
