18

C      -0.151793    1.572824    0.045946
C       0.044335    0.062191    0.000681
C       1.144588   -0.542462   -0.951020
C       1.757233   -1.267042    0.240358
O       2.262309   -2.544284    0.082769
C       2.198100   -0.270689    1.283700
C       0.725810   -0.651641    1.176005
O       0.053451   -1.250449    2.229022
H       0.786903    2.097046    0.255298
H      -0.534628    1.949415   -0.908675
H      -0.871790    1.853811    0.822968
H      -0.911706   -0.432503   -0.198684
H       0.728769   -1.230993   -1.689131
H       1.796791    0.178207   -1.455116
H       2.400921   -2.928323    0.955242
H       2.675927   -0.726352    2.148074
H       2.580197    0.717445    1.030864
H      -0.027510   -0.611083    2.945667
