21

C       0.080660    1.561576    0.220681
C       0.051270    0.032644    0.051406
C       0.635049   -0.621728    1.319242
C      -1.410342   -0.421727   -0.132025
C       0.858990   -0.457391   -1.154515
C       0.937717    0.264365   -2.475825
C       2.166361    0.144072   -1.603973
H       1.096376    1.937415    0.377957
H      -0.345341    2.078362   -0.644838
H      -0.511681    1.850100    1.095400
H       0.065463   -0.333500    2.209812
H       0.609770   -1.714693    1.246696
H       1.676943   -0.321590    1.472000
H      -1.850168    0.023242   -1.030645
H      -1.475442   -1.510806   -0.232748
H      -2.025042   -0.129027    0.726513
H       0.816584   -1.541647   -1.244356
H       0.887530   -0.324033   -3.385623
H       0.482830    1.244773   -2.562774
H       2.521153    1.045205   -1.116362
H       2.959697   -0.526911   -1.915202
