21

C      -0.142015    1.574173    0.142044
C      -0.005927    0.042613    0.046671
C       0.683039   -0.507009    1.309817
C      -1.410981   -0.578927   -0.071373
C       0.784255   -0.358328   -1.220613
C       2.248748    0.079961   -1.305905
N       2.941970   -0.523408   -2.319265
O       2.783711    0.884088   -0.564864
H       0.837614    2.047782    0.215160
H      -0.656943    1.977138   -0.738421
H      -0.732551    1.849138    1.022947
H       0.091277   -0.269465    2.200497
H       0.782154   -1.598149    1.261706
H       1.677988   -0.075264    1.431698
H      -1.933214   -0.221457   -0.966376
H      -1.363240   -1.672748   -0.124946
H      -2.022529   -0.314691    0.797881
H       0.753682   -1.449960   -1.337528
H       0.276031    0.049540   -2.106105
H       2.496325   -1.120673   -2.993239
H       3.883496   -0.213676   -2.496395
