17

C      -0.019174    1.406787    0.099856
N       0.003748   -0.035140   -0.011275
C       0.135428   -0.781501   -1.126949
C       0.100140   -2.111666   -0.731949
C       0.200003   -3.263539   -1.541142
C       0.282877   -4.262623   -2.209973
C      -0.060797   -2.051471    0.685010
C      -0.160821   -3.195128    1.639881
N      -0.117157   -0.792152    1.103520
H       0.090834    1.840187   -0.895386
H      -0.965598    1.737195    0.536188
H       0.800483    1.749758    0.736877
H       0.242970   -0.338497   -2.104116
H       0.356314   -5.139670   -2.803160
H       0.734256   -3.824841    1.597673
H      -0.278884   -2.820923    2.658566
H      -1.014830   -3.837299    1.399532
