20

O      -0.056398    1.423015   -0.004487
C       0.010649    0.003231    0.025387
C      -1.414875   -0.538806   -0.016302
C      -2.151352   -0.112727   -1.297843
O      -3.431037   -0.718321   -1.371145
C      -3.360759   -2.111664   -1.611531
C      -2.403911   -2.840567   -0.676134
N      -0.976243   -2.814023   -1.053663
C      -1.431807   -2.049176    0.122144
H       0.838646    1.766035   -0.076986
H       0.571340   -0.392915   -0.834559
H       0.514032   -0.350945    0.940411
H      -1.965188   -0.120339    0.836366
H      -2.312633    0.966019   -1.294990
H      -1.547860   -0.373840   -2.181214
H      -4.378538   -2.488708   -1.471917
H      -3.060382   -2.306749   -2.653829
H      -2.784721   -3.759821   -0.237677
H      -0.518195   -3.672047   -0.759083
H      -1.160437   -2.432222    1.104658
