19

C       0.232043    1.444443    0.472738
C       0.131294   -0.042812    0.299352
C      -0.786516   -0.924549    1.091257
C       0.701703   -1.177564    1.143698
C       1.306399   -1.839189   -0.126469
C       0.327384   -2.190522   -1.206918
C      -0.993318   -2.905854   -1.094992
O      -1.840458   -2.871311   -1.951973
C       0.692545   -0.733238   -0.976411
H       1.232811    1.811250    0.216020
H      -0.487202    1.968373   -0.169053
H       0.025719    1.732442    1.508370
H      -1.172753   -0.458123    1.994304
H      -1.502100   -1.598421    0.633807
H       1.253105   -1.111186    2.073056
H       2.328718   -2.195790   -0.143652
H       0.830273   -2.534162   -2.112173
H      -1.116935   -3.542158   -0.190599
H       1.159271   -0.161750   -1.769341
