22

C      -0.079163    1.543305   -0.005107
C      -0.001004    0.026429    0.003064
C      -1.240932   -0.625839   -0.585817
C       1.333225   -0.640067   -0.247915
C       0.735188   -0.679751    1.139870
C       1.404039    0.077426    2.274005
N       0.185275   -1.947676    1.562357
C       0.948126   -3.040280    1.845295
O       2.148852   -3.116604    1.699331
H       0.841012    2.016207    0.343148
H      -0.264472    1.902044   -1.024060
H      -0.901692    1.904165    0.624118
H      -1.390953   -0.284687   -1.616273
H      -1.165148   -1.714875   -0.604618
H      -2.142871   -0.354975   -0.021610
H       1.351402   -1.566233   -0.810267
H       2.208074   -0.014005   -0.389713
H       1.879601    0.998130    1.930972
H       0.683408    0.338188    3.057726
H       2.179521   -0.555412    2.715014
H      -0.786419   -1.983070    1.831514
H       0.328966   -3.880788    2.222673
