23

C      -1.415751   -0.513942   -0.371179
C      -0.078310    0.153954   -0.020879
C      -0.293700    1.650106    0.259482
C       0.664616   -0.492758    1.146069
C      -0.008638   -1.299616    2.256780
C       0.932980   -1.952937    1.295711
C       0.727753   -3.143149    0.359992
C       2.083173   -3.616209    0.925987
O       2.218823   -2.419370    1.723823
H      -2.142748   -0.391082    0.439017
H      -1.844081   -0.052405   -1.266653
H      -1.312756   -1.584508   -0.570164
H       0.575513    0.073377   -0.902115
H      -0.924048    1.791695    1.144845
H       0.656992    2.161608    0.441864
H      -0.785094    2.143972   -0.585481
H       1.501123    0.107862    1.499717
H       0.338875   -1.148402    3.273325
H      -1.065127   -1.532099    2.168230
H      -0.131265   -3.780499    0.578259
H       0.739960   -2.903165   -0.705112
H       2.043356   -4.517762    1.549013
H       2.898513   -3.716428    0.200895
