16

C       0.575751    1.178317   -0.308143
C       0.232855   -0.297790   -0.274845
N       0.320867   -0.856239    1.005468
C       0.100481   -2.164531    1.422383
O      -0.249303   -3.094292    0.750628
N      -0.095077   -1.032837   -1.260442
C      -0.185184   -0.445763   -2.588975
C       1.106438    0.014002   -3.123569
N       2.131392    0.381124   -3.511960
H       0.556672    1.631784    0.685597
H       1.570755    1.324810   -0.739698
H      -0.132998    1.721796   -0.938660
H       0.610298   -0.226991    1.737842
H       0.295533   -2.238975    2.512641
H      -0.576287   -1.208896   -3.269096
H      -0.887762    0.400651   -2.632794
