21

C       0.180260    1.391589    0.093966
N      -0.059646   -0.047530    0.038013
C      -1.457854   -0.495705   -0.046970
C      -2.236177    0.066312   -1.261885
C      -1.422972   -2.045403   -0.068516
C      -2.779335   -2.757070   -0.024827
O      -2.622906   -4.166662   -0.030326
C      -2.139048   -0.054292    1.191951
N      -2.691696    0.288497    2.147294
H       1.254718    1.557186    0.211372
H      -0.155647    1.959508   -0.787944
H      -0.316799    1.808647    0.974930
H       0.449919   -0.460141   -0.736084
H      -1.769103   -0.292335   -2.184899
H      -3.281301   -0.252814   -1.255605
H      -2.224006    1.158109   -1.266340
H      -0.895343   -2.355875   -0.978708
H      -0.813756   -2.369147    0.782579
H      -3.359129   -2.417597    0.845753
H      -3.367873   -2.527547   -0.918133
H      -2.225313   -4.422930    0.808034
