20

C      -0.022309    1.562057   -0.023066
C       0.005233    0.036340   -0.030048
C       0.418989   -0.511540   -1.413598
O       0.893906   -1.849044   -1.371297
C       1.864320   -2.046852   -0.363635
C       2.931095   -0.913924   -0.151434
C       2.243640   -0.573617    1.178898
C       1.350089   -1.787587    1.067545
N       0.795266   -0.456804    1.109625
H       0.980383    1.971146   -0.189547
H      -0.677866    1.944893   -0.812299
H      -0.384870    1.933230    0.938962
H      -1.006499   -0.335787    0.177957
H      -0.451322   -0.520481   -2.076550
H       1.172569    0.143130   -1.876006
H       2.292842   -3.034710   -0.537955
H       3.915306   -1.358067    0.020886
H       3.032800   -0.130580   -0.904568
H       2.732183   -0.169600    2.058455
H       1.047439   -2.523844    1.804932
