17

C       0.064490   -1.210560   -0.071999
C      -0.012910   -0.009572   -0.012545
C      -0.047491    1.410770    0.049394
C      -1.189927    2.114641    0.021892
C      -1.173867    3.616504    0.115846
O      -0.064813    4.119156    0.848135
C       1.176958    3.605137    0.459620
C       1.833744    2.645745    1.414773
C       1.251519    2.148215    0.100975
H       0.116959   -2.269850   -0.121275
H      -2.150575    1.617794   -0.062919
H      -1.206942    4.058222   -0.896095
H      -2.062075    3.973933    0.646692
H       1.794566    4.315212   -0.087285
H       2.912964    2.663809    1.519416
H       1.279478    2.425712    2.319780
H       1.968000    1.854738   -0.660085
