17

C      -0.046701    1.417164    0.068281
N       0.016743   -0.036971    0.043073
C       0.566117   -0.590145   -0.950585
N       1.156415   -0.049366   -2.082294
C       1.675253   -1.019787   -2.935562
O       2.245762   -0.842128   -3.971026
O       1.421887   -2.232844   -2.385060
C       0.714405   -2.093819   -1.131935
C       1.474537   -2.775219   -0.005870
H       0.950578    1.879891    0.015608
H      -0.646294    1.817927   -0.762611
H      -0.513636    1.743671    0.999868
H       1.251116    0.928773   -2.296428
H      -0.272784   -2.550513   -1.261253
H       2.477556   -2.350855    0.092929
H       0.934522   -2.618359    0.930904
H       1.562331   -3.847097   -0.198417
