16

C       0.110997    1.430941   -0.036157
O       0.079109   -0.000391    0.012659
C       0.585418   -0.655950   -1.026130
C       0.677617   -2.002563   -1.229610
C       0.241097   -3.131123   -0.353855
C       1.303523   -2.041558   -2.504721
O       1.616009   -3.174457   -3.154205
N       1.565074   -0.863645   -3.023674
O       1.090675    0.049462   -2.046977
H       1.139651    1.796033   -0.104796
H      -0.461647    1.804919   -0.889607
H      -0.344158    1.763894    0.896268
H      -0.500510   -3.765915   -0.851010
H       1.081960   -3.775235   -0.074241
H      -0.207536   -2.745201    0.564786
H       2.028893   -2.925855   -3.992303
