16

O      -0.114214   -0.106158    0.225797
C      -0.029828    1.083740   -0.004416
C       1.205947    1.824629   -0.109281
C       2.541457    1.411833    0.017569
C       3.409522    2.512420   -0.170746
C       2.568724    3.591293   -0.410780
C       2.188974    5.030922   -0.715623
C       0.703895    4.500547   -0.663019
N       1.286703    3.177017   -0.371220
H      -0.943988    1.705088   -0.156256
H       2.828959    0.393059    0.229608
H       4.486987    2.502586   -0.132915
H       2.436426    5.766775    0.053272
H       2.500291    5.413884   -1.690463
H       0.086742    4.898653    0.146162
H       0.153905    4.541294   -1.606421
