19

C      -0.034171    1.521263    0.522639
C      -0.034824    0.015841    0.382781
C      -1.201543   -0.731826   -0.099385
O      -0.082517   -0.489912   -0.955569
C       1.322518    2.105710    0.146948
C       1.822440    2.209272   -1.323566
C       0.861860    3.391427   -1.594149
C       1.555232    3.598334   -0.226012
O       2.832605    3.192299   -0.856130
H      -0.839069    1.932055   -0.093571
H      -0.263501    1.781073    1.564815
H       0.674176   -0.513003    1.023220
H      -1.346170   -1.769144    0.199261
H      -2.112776   -0.193582   -0.358128
H       2.115120    1.736770    0.805090
H       2.157894    1.420261   -1.995280
H       1.194373    4.074572   -2.376151
H      -0.213137    3.206926   -1.629297
H       1.572434    4.478423    0.418617
