17

O       0.242077    0.130390    0.681587
C       0.167834    1.277722    0.303200
N       1.133432    1.927471   -0.431883
C       2.614774    1.712837   -0.243731
C       2.812022    2.963007   -1.155735
C       1.666927    3.320535   -0.164954
C       2.539391    2.696195    0.950215
C       2.429430    2.533640    2.400868
N       3.544394    3.314593    1.774573
H      -0.742597    1.900132    0.425619
H       3.063098    0.723884   -0.309624
H       3.743171    3.515482   -1.031820
H       2.512765    2.837373   -2.196288
H       1.021228    4.197021   -0.143268
H       1.732971    3.134422    2.978830
H       2.652558    1.559193    2.826212
H       4.403839    2.769751    1.783381
