20

C      -0.050811    1.551396   -0.028514
C       0.048103    0.044815    0.048500
C       1.354407   -0.683252   -0.182472
O       2.518995    0.102817   -0.147693
C       2.953710    0.190145    1.213236
C       1.684427    0.077581    2.081010
C       0.724443   -0.717920    1.185420
C       0.062479   -1.950982    1.755081
H       0.922324    2.024014    0.121965
H      -0.408337    1.857207   -1.017421
H      -0.750125    1.950417    0.714712
H      -0.821573   -0.477332   -0.347210
H       1.415498   -1.549700   -0.836079
H       3.648362   -0.634276    1.436955
H       3.492463    1.134879    1.331401
H       1.882497   -0.456668    3.014833
H       1.288354    1.063035    2.345327
H      -0.654361   -1.691591    2.543305
H      -0.485443   -2.499915    0.982426
H       0.800548   -2.635813    2.189752
