16

C      -0.015230    1.503395    0.045136
C      -0.005302    0.007000    0.039529
C      -0.031299   -0.811245   -1.067161
N      -0.011088   -2.162274   -0.687909
C       0.027530   -2.173558    0.672653
C       0.032807   -0.882061    1.165433
N       0.072395   -0.901631    2.549175
C       0.089842   -2.173849    2.858531
N       0.063945   -3.018583    1.749507
H       0.875735    1.908711    0.538382
H      -0.046865    1.902825   -0.972852
H      -0.882117    1.896854    0.588357
H      -0.062834   -0.553409   -2.114032
H      -0.024839   -2.942353   -1.318235
H       0.121064   -2.583043    3.857528
H       0.071401   -4.022955    1.766664
