17

C       0.101484    1.565660   -0.188846
C      -0.026093    0.087530    0.075180
O       1.169909   -0.721825    0.071592
C       0.469723   -0.596857    1.296876
C       1.148959    0.139786    2.442587
C       1.979019   -0.752213    3.244889
C       2.648300   -1.506598    3.897384
C      -1.167731   -0.608327   -0.611308
O      -2.082944   -0.038973   -1.147183
H       0.950290    2.001912    0.337871
H       0.232772    1.741519   -1.260286
H      -0.815229    2.077490    0.116000
H      -0.043184   -1.508732    1.609522
H       1.757576    0.956968    2.045028
H       0.375216    0.593652    3.076081
H       3.249577   -2.164319    4.474936
H      -1.085973   -1.717673   -0.585071
