18

O       0.102177    0.010301   -0.442295
C       0.071019    1.191587   -0.170253
N       1.119123    1.904346    0.332447
C       2.569774    1.615190    0.206488
C       2.824697    1.980089   -1.276845
C       2.444081    3.467991   -1.100115
C       3.552085    3.946523   -0.126031
C       2.841266    3.030984    0.881102
C       1.481654    3.310355    0.184937
H      -0.847999    1.810303   -0.243244
H       2.933382    0.674522    0.610987
H       3.863582    1.855639   -1.593173
H       2.176003    1.405950   -1.940785
H       2.154941    4.043514   -1.977462
H       4.591072    3.746581   -0.402093
H       3.442798    4.995468    0.164001
H       2.973583    3.059261    1.960673
H       0.773719    4.094290    0.446315
