22

C       1.487128   -1.642844   -0.998671
C       0.455018   -0.852177   -0.186363
C       0.719966   -0.721345    1.330539
O      -0.255424    0.160870    1.887107
C       0.595339   -2.069764    2.059772
O      -0.768985   -2.474974    1.949196
C       2.090207   -0.124698    1.625171
C       2.300885    1.340797    1.593564
N       2.313099    0.610778    2.878113
H       1.581830   -2.677055   -0.651773
H       1.187253   -1.682451   -2.050363
H       2.479212   -1.182930   -0.959917
H       0.379723    0.167494   -0.577917
H      -0.532557   -1.310810   -0.308204
H      -1.042261   -0.382129    2.026715
H       1.268240   -2.817745    1.618897
H       0.879215   -1.928152    3.110868
H      -0.938058   -3.169581    2.591176
H       2.919611   -0.770818    1.347297
H       3.260289    1.744646    1.282781
H       1.440553    1.965778    1.375975
H       1.399028    0.747267    3.308085
