15

N       0.086579   -1.092678    0.001560
C       0.041588    0.062201   -0.015786
C      -0.017257    1.502177    0.018821
C      -1.206619    2.181689    0.616008
C      -1.298234    3.398531    0.082528
C      -0.097084    3.620414   -0.797708
C       1.171921    3.748464    0.114928
C       1.308992    2.248968   -0.059487
N       0.376578    2.218022   -1.228558
H      -1.837788    1.720581    1.362215
H      -2.011252    4.170919    0.339378
H      -0.202512    4.318014   -1.626072
H       1.985642    4.252316   -0.410634
H       1.052943    4.170995    1.115514
H       2.235960    1.684268   -0.047893
