17

O       0.027148    0.066570   -0.342317
C       0.080843    1.219347   -0.049514
O      -0.928772    2.005786    0.469558
C      -0.061021    3.185493    0.521132
C       1.075529    2.347170   -0.050591
C       2.528743    2.376874    0.336726
C       3.238543    1.122732   -0.193454
C       2.795535    1.512102   -1.645130
C       2.097673    2.755732   -1.075784
H      -0.454231    3.981827   -0.115610
H       0.054137    3.535072    1.550081
H       2.855915    3.009832    1.153840
H       4.321374    1.171254   -0.064325
H       2.873185    0.167835    0.190076
H       3.644427    1.766243   -2.282584
H       2.153499    0.800384   -2.168253
H       2.033408    3.732718   -1.541318
