12

C       0.008228    1.491036   -0.031666
C      -0.101210    0.006743    0.037096
N      -1.178460   -0.620072   -0.226855
C      -1.167195   -2.010993   -0.142687
N      -2.230069   -2.683139   -0.239519
O       0.065677   -2.628598    0.018588
N       1.217242   -1.857496    0.412957
N       1.120993   -0.636012    0.436146
H       0.805441    1.774537   -0.727386
H      -0.939469    1.922732   -0.350445
H       0.292252    1.887858    0.949107
H      -2.035331   -3.679832   -0.139264
