17

N       0.060924    1.520436   -0.024030
C       0.024700    0.061095    0.023811
C       0.614618   -0.617361   -1.227092
O      -0.117586   -0.126823   -2.341736
C       0.722958   -0.455700    1.245567
N       1.636805    0.244056    1.901411
N       2.011455   -0.615332    2.879359
C       1.324808   -1.769254    2.773610
N       0.500598   -1.709161    1.747752
H       1.008378    1.840107    0.157341
H      -0.178793    1.804104   -0.969737
H      -1.024139   -0.256465    0.083555
H       1.683599   -0.360973   -1.303906
H       0.526524   -1.709515   -1.133514
H       0.284088   -0.469292   -3.144795
H       2.696080   -0.333025    3.561144
H       1.453159   -2.600411    3.450735
