17

C       0.123001    1.593853    0.022922
C       0.064511    0.087010   -0.046689
O      -1.130199   -0.476626    0.429776
C       0.603181   -0.728923   -1.204114
C       1.633063   -0.117064   -2.125112
C       2.825915    0.212038   -1.218137
O       3.847244    0.759084   -1.506063
O       2.554676   -0.197966    0.062261
C       1.277310   -0.794422    0.150955
H       1.076959    1.998170   -0.321353
H      -0.678837    2.030005   -0.580653
H      -0.012173    1.926909    1.058822
H      -1.200378   -0.271213    1.369479
H      -0.017493   -1.546585   -1.547055
H       1.963021   -0.821246   -2.894764
H       1.318652    0.796213   -2.637880
H       1.248140   -1.654197    0.808562
