23

C       0.012835    1.524821    0.100595
C       0.019842    0.008348   -0.019165
C       0.646642   -0.498154   -1.319999
C       0.547122   -2.028354   -1.397243
C       0.890971   -2.719188   -0.083300
C       0.339705   -4.125629    0.047970
C       2.217874   -2.436718    0.595549
C       0.938785   -1.864956    1.161560
O       0.758919   -0.478827    1.101013
H       1.031471    1.918371    0.026413
H      -0.592441    1.970757   -0.694345
H      -0.400101    1.828502    1.066305
H      -1.017356   -0.366752    0.040084
H       0.139897   -0.049376   -2.181511
H       1.690977   -0.163312   -1.352062
H      -0.488714   -2.291776   -1.651598
H       1.171310   -2.420328   -2.209976
H       0.755041   -4.782384   -0.726220
H       0.587908   -4.564886    1.019376
H      -0.751697   -4.136578   -0.056491
H       2.708893   -3.251429    1.118059
H       2.891947   -1.719363    0.140082
H       0.549884   -2.287571    2.086433
