17

C       0.030485    1.481300    0.008294
C      -0.054300   -0.047521    0.002496
C      -1.493988   -0.531742    0.013599
O      -1.466908   -1.972172    0.007237
C      -2.643741   -2.579284    0.015117
N      -2.741783   -3.906357    0.010074
N      -4.066725   -4.038235    0.021365
N      -4.748412   -2.911275    0.032717
N      -3.849229   -1.953868    0.028876
H       1.072310    1.812737    0.000202
H      -0.462939    1.912391   -0.869471
H      -0.446789    1.904787    0.898600
H       0.447598   -0.453775   -0.882831
H       0.463688   -0.461332    0.874962
H      -2.031130   -0.185482    0.904231
H      -2.047306   -0.177974   -0.864084
H      -4.519740   -4.939568    0.021356
