16

C       0.165157    1.383407   -0.000791
O      -0.328998    0.078821   -0.312192
C       0.388370   -0.628450   -1.193044
C       0.645855   -1.959723   -1.250060
C       1.370148   -2.166309   -2.482015
N       1.790096   -3.400361   -3.006232
C       1.497904   -0.943035   -3.054779
O       2.175614   -0.527022   -4.147609
O       0.890835    0.024850   -2.272274
H       1.183969    1.329064    0.400535
H       0.158453    2.030387   -0.882669
H      -0.508469    1.786390    0.756556
H       0.347965   -2.701086   -0.527077
H       2.204131   -3.993969   -2.297227
H       2.462299   -3.269153   -3.753086
H       1.555299   -0.298160   -4.851929
