21

C      -0.166477    1.548774   -0.061578
C       0.027236    0.035531   -0.005524
C       0.887483   -0.523870   -1.167298
C       1.341361   -1.910860   -0.688430
C       1.472519   -1.760156    0.828369
O       2.074327   -2.497489    1.573012
C       0.726349   -0.521646    1.236147
C       1.392849    0.324846    2.316525
C       0.171764   -0.469200    2.641885
H       0.794949    2.073019   -0.049371
H      -0.689995    1.834463   -0.979883
H      -0.762099    1.914502    0.782033
H      -0.964141   -0.437456   -0.067291
H       0.339014   -0.549072   -2.112675
H       1.761429    0.123218   -1.313245
H       0.567397   -2.667194   -0.877798
H       2.268299   -2.280845   -1.131815
H       2.345897   -0.039407    2.683946
H       1.304789    1.401897    2.234605
H      -0.764838    0.061032    2.782371
H       0.295268   -1.368022    3.236690
