13

C       0.006355    1.437243    0.043823
N      -0.017743   -0.011305   -0.033155
C      -0.086208   -0.783387   -1.149312
C      -0.025604   -2.094126   -0.735040
C       0.082349   -2.004195    0.671834
N       0.088265   -0.729876    1.088455
C       0.170475   -3.078865    1.599797
N       0.241014   -3.979759    2.322603
H       1.024597    1.797305    0.216451
H      -0.370194    1.848960   -0.893609
H      -0.630553    1.759854    0.868444
H      -0.173328   -0.346121   -2.131040
H      -0.061224   -2.984367   -1.339642
