18

C      -0.407593    1.491385    0.004527
C       0.001008    0.003704   -0.006838
N       0.648010   -0.380180   -1.264076
C       1.880304    0.029018   -1.674453
C       2.950056    0.433999   -0.947866
C       3.159101    0.387629    0.493604
O       4.225940    0.742883    0.985035
C       2.123757   -0.165582    1.413992
C       0.816119   -0.343690    1.216319
H       0.476434    2.127833   -0.083308
H      -1.086066    1.711381   -0.826408
H      -0.916936    1.740173    0.940434
H      -0.913286   -0.598281    0.033741
H       0.000068   -0.579623   -2.008767
H       1.994132   -0.008963   -2.755838
H       3.826779    0.749503   -1.501722
H       2.540220   -0.396466    2.390973
H       0.225899   -0.719251    2.049453
