17

C      -0.129143    1.389397    0.453828
C      -0.158623   -0.082115    0.046632
C      -1.553690   -0.680387    0.120132
O      -2.517208   -0.121476    0.582171
N      -1.664376   -1.943340   -0.491070
C      -0.943772   -3.148151   -0.168961
C      -2.443799   -3.048123    0.017777
C      -2.966706   -3.028893    1.366080
N      -3.389655   -3.068569    2.440807
H       0.893350    1.774907    0.419311
H      -0.748933    1.991873   -0.215069
H      -0.518508    1.519528    1.465888
H       0.227042   -0.230685   -0.968779
H       0.494927   -0.677660    0.699087
H      -0.553344   -3.721785   -1.005219
H      -0.342705   -3.169428    0.737052
H      -3.099119   -3.528879   -0.703384
