16

O       0.067098    0.037103   -0.283133
C       0.010130    1.210494   -0.022165
N      -1.145811    1.868562    0.298950
C      -1.381770    3.241777    0.468478
C      -0.784218    4.297107   -0.089554
C       0.292583    4.427508   -1.133442
O       0.630314    3.252295   -1.857828
C       1.576810    2.453831   -1.223690
O       1.111383    2.031260    0.047035
H      -1.936246    1.250620    0.406030
H      -2.195691    3.426193    1.163643
H      -1.149125    5.262949    0.253293
H      -0.054561    5.145552   -1.886255
H       1.199324    4.863059   -0.679566
H       1.755580    1.596398   -1.879524
H       2.507935    2.996231   -1.015743
