20

C      -0.157081    1.537421   -0.031789
C       0.057559    0.025258   -0.043725
C       0.991274   -0.510622   -1.152974
C       1.187613   -1.984351   -0.693993
C       1.956907   -1.307134    0.475390
C       2.414477   -0.253794   -0.573776
C       0.833522   -0.558055    1.205095
O       1.408736    0.413657    2.064267
H       0.783750    2.085549    0.058738
H      -0.652211    1.859561   -0.953922
H      -0.800376    1.845618    0.801286
H      -0.921378   -0.462528   -0.125883
H       0.732776   -0.255371   -2.182185
H       0.295000   -2.574187   -0.459240
H       1.850897   -2.552282   -1.350203
H       2.662764   -1.849108    1.104789
H       3.200944   -0.636745   -1.228176
H       2.671615    0.744033   -0.215147
H       0.200839   -1.245104    1.785008
H       0.696501    0.892003    2.499065
