20

O      -0.015284   -0.052807   -0.025067
C       0.036543    1.148634    0.051046
C       1.312709    1.967222    0.019283
C       1.376019    2.799423   -1.281676
C       2.565769    3.766589   -1.249259
C       2.425700    4.824298   -0.141230
C       1.927783    4.241489    1.174472
N       0.474266    4.009459    1.276709
C       1.387228    2.854078    1.255110
H      -0.886958    1.763314    0.147247
H       2.151518    1.261755    0.038076
H       1.458932    2.117339   -2.133776
H       0.442897    3.361704   -1.403000
H       3.485400    3.188488   -1.090013
H       2.673677    4.262061   -2.219801
H       3.391273    5.314773    0.021509
H       1.723589    5.604453   -0.456997
H       2.420748    4.612496    2.070325
H       0.147966    4.185886    2.222528
H       1.537257    2.316175    2.189441
