17

O       0.191916    1.287816   -0.254341
C       0.149732   -0.050964    0.165654
C      -0.127501   -0.349554    1.656621
O      -1.279730   -1.145681    1.304492
C      -1.211424   -0.736563   -0.071875
C      -2.396997    0.093316   -0.641634
C      -2.462128   -0.901919   -1.809762
O      -3.046471   -0.924508   -2.852914
C      -1.427609   -1.829392   -1.148212
H       1.094756    1.611146   -0.180690
H       0.987975   -0.630692   -0.241206
H       0.619611   -0.930455    2.208173
H      -0.400139    0.548118    2.225700
H      -3.277976    0.045316    0.006897
H      -2.190576    1.133081   -0.903460
H      -0.570136   -2.129091   -1.757517
H      -1.890573   -2.725758   -0.720958
