20

C       0.072111    1.609895   -0.425943
C       0.086569    0.132857   -0.087036
C       1.243276   -0.821831   -0.283667
C       2.665166   -0.287080   -0.411692
C       2.920501    0.607590    0.826495
C       1.855808    0.180132    1.885301
C       1.402700    1.293052    2.721918
N       1.043332    2.172815    3.380513
C       0.735157   -0.521366    1.113122
H       1.039996    2.098346   -0.308615
H      -0.237400    1.750334   -1.467377
H      -0.641651    2.145053    0.208362
H      -0.869459   -0.335564   -0.313395
H       1.034021   -1.778419   -0.750816
H       3.358548   -1.134942   -0.417261
H       2.834382    0.264126   -1.342860
H       3.931263    0.487454    1.223308
H       2.806077    1.665283    0.586809
H       2.300069   -0.561815    2.559836
H       0.150081   -1.240627    1.675198
