19

C      -0.020598    1.503539   -0.042558
C       1.395222    2.094904   -0.000852
C       2.073522    1.766395    1.339954
C       1.893209    0.322177    1.705305
C       2.536182   -0.509760    2.604993
C       1.861877   -1.741358    2.498911
N       0.876205   -1.693840    1.605516
N       0.906910   -0.427120    1.140910
C       0.025936   -0.022681    0.057273
H      -0.611896    1.909336    0.787855
H      -0.534389    1.780648   -0.968163
H       1.986227    1.679607   -0.827119
H       1.363181    3.179037   -0.146022
H       3.140100    2.011090    1.307429
H       1.639543    2.399331    2.126798
H       3.364053   -0.252985    3.246586
H       2.050358   -2.659561    3.036336
H      -0.961166   -0.450779    0.248451
H       0.394541   -0.453935   -0.882787
