16

C      -0.042766    1.480333    0.025384
C      -0.007762    0.026933   -0.004533
C       0.008911   -1.177916   -0.028948
C       0.076412   -2.597877   -0.051398
C      -0.426964   -3.440895   -1.152362
N      -1.193468   -3.503237    0.125500
C      -0.388816   -4.333949    1.007207
O      -0.719424   -5.301315    1.615820
C       0.869825   -3.457406    0.943322
H       0.695628    1.878435    0.729670
H       0.172132    1.905317   -0.961079
H      -1.028536    1.842249    0.337561
H      -0.990729   -2.954618   -1.940843
H       0.136643   -4.317135   -1.466571
H       1.794497   -3.916520    0.585162
H       1.054416   -2.960218    1.898105
