16

C       0.035702   -1.237640    0.036809
C       0.000590   -0.033762    0.041974
C      -0.050664    1.386224    0.046891
C      -0.715227    2.369261    1.058153
C       0.350966    3.346686    0.748958
C       1.217171    2.359354   -0.053655
C       0.887741    2.630452   -1.539494
C      -0.554268    2.334360   -1.106782
N      -0.928781    3.352345   -0.042196
H       0.067835   -2.298857    0.032146
H      -1.390598    2.236806    1.894414
H       0.637497    4.260489    1.252837
H       2.202561    2.082180    0.313005
H       1.112106    3.615961   -1.955456
H       1.274805    1.840433   -2.189261
H      -1.367991    2.102354   -1.790920
