17

C      -0.124646    1.566937   -0.138988
C      -0.008877    0.058432   -0.044392
O      -1.243477   -0.570542    0.209744
C       0.666910   -0.688989   -1.205324
N       2.044215   -0.159139   -1.294514
C       1.734846   -1.232003   -0.329703
C       1.140753   -0.546519    0.911293
C       1.989893    0.348908    1.676450
N       2.642114    1.075875    2.295938
H       0.833352    2.007094   -0.420088
H      -0.877284    1.832672   -0.887777
H      -0.424341    1.995105    0.825037
H      -1.699435   -0.073185    0.897605
H       0.158663   -1.133131   -2.051360
H       2.491395   -0.589680   -2.102318
H       2.250367   -2.183036   -0.351026
H       0.659171   -1.270605    1.571677
