17

C      -0.023967    1.532108    0.039138
C      -0.018312    0.026628    0.021082
C      -1.176501   -0.701817    0.048489
N      -2.420792   -0.109356    0.141940
C      -1.118810   -2.145699    0.034543
C       0.083044   -2.735723   -0.007842
O       1.240524   -2.054793   -0.035786
C       1.262004   -0.648042   -0.016359
N       2.391209   -0.057878   -0.038116
H       0.998502    1.902078   -0.030829
H      -0.594314    1.948164   -0.803742
H      -0.470978    1.926180    0.961128
H      -2.476144    0.864338   -0.113343
H      -3.202577   -0.653995   -0.186960
H      -2.020099   -2.744544    0.066810
H       0.245319   -3.806801   -0.023428
H       3.149439   -0.737435   -0.069059
