16

C       0.108983    1.477308    0.014852
C       0.060838   -0.037280    0.004656
O       0.768653   -0.548507   -1.112472
C       1.264598   -1.813836   -0.715930
C       2.554589   -1.783125    0.069976
C       1.219483   -1.822457    0.776100
O       0.700049   -0.561617    1.156539
C      -1.351777   -0.536570   -0.040970
N      -2.439663   -0.923661   -0.075994
H       1.154238    1.789491    0.048272
H      -0.363456    1.870674   -0.887349
H      -0.417261    1.860410    0.891322
H       0.979032   -2.640295   -1.354906
H       3.154459   -2.687292    0.082892
H       3.103062   -0.848874    0.091958
H       0.896120   -2.656138    1.387071
