20

O       0.032751    1.450985    0.032389
C      -0.022396    0.039141   -0.008845
C      -1.470863   -0.474040   -0.021104
C      -2.623593    0.487548   -0.125316
C      -2.216616   -0.322138   -1.330904
C      -1.419297    0.301940   -2.478610
C      -0.022436   -0.311645   -2.555163
N       1.126376    0.557171   -2.210837
C       0.693755   -0.490406   -1.269038
H       0.569444    1.709750   -0.736720
H       0.483268   -0.362200    0.880065
H      -1.625502   -1.388981    0.542673
H      -3.550538    0.231182    0.376484
H      -2.371722    1.541480   -0.117860
H      -2.874614   -1.137992   -1.614812
H      -1.945699    0.163334   -3.427149
H      -1.316176    1.379388   -2.326640
H       0.147729   -1.051200   -3.333477
H       1.966946    0.280484   -2.708955
H       1.332681   -1.358260   -1.135467
