16

C      -0.371456    1.459989    0.238613
C       0.257121    0.099134   -0.065356
N       0.799597   -0.549506    1.118216
C       0.136452   -1.178205    2.128636
C       1.137682   -1.541912    3.005769
N       1.077121   -2.276950    4.188551
N       2.327945   -1.125635    2.496523
N       2.115723   -0.527805    1.350163
H       0.368096    2.132610    0.680969
H      -0.744459    1.912584   -0.684939
H      -1.210602    1.364530    0.933859
H      -0.473860   -0.575745   -0.522307
H       1.097441    0.203876   -0.754513
H      -0.930723   -1.317427    2.128250
H       0.312958   -2.011456    4.794993
H       1.956554   -2.217356    4.686690
